BIBF_1120
  SciTegic01111223263D

 36 40  0  0  0  0            999 V2000
    1.2871   -0.2855   -0.0002 C   0  0
    1.1150    1.0972    0.0001 C   0  0
   -0.1638    1.6454    0.0001 C   0  0
   -1.2470    0.7790    0.0000 C   0  0
   -1.0900   -0.5957   -0.0003 C   0  0
    0.1866   -1.1375   -0.0003 C   0  0
   -2.5992    1.1519    0.0000 N   0  0
   -3.3610   -0.0342   -0.0002 C   0  0
   -2.4677   -1.2209   -0.0004 C   0  0
   -2.9563   -2.5014   -0.0006 C   0  0
   -4.5972   -0.0503   -0.0002 O   0  0
   -4.4917   -2.4646   -0.0005 N   0  0
   -2.0477   -3.8026   -0.0008 C   0  0
   -5.5206   -3.5529   -0.0008 C   0  0
   -0.6634   -3.7206   -0.0013 C   0  0
    0.1594   -4.8400   -0.0014 C   0  0
   -0.3978   -6.1084   -0.0011 C   0  0
   -1.7782   -6.2265   -0.0005 C   0  0
   -2.5726   -5.0865   -0.0003 C   0  0
   -5.2607   -4.9135   -0.0012 C   0  0
   -6.2813   -5.8531   -0.0014 C   0  0
   -7.6065   -5.4446   -0.0012 C   0  0
   -7.8872   -4.0837   -0.0008 C   0  0
   -6.8536   -3.1519   -0.0006 C   0  0
   -8.6708   -6.3845   -0.0014 N   0  0
   -8.4495   -7.7920   -0.0019 C   0  0
  -10.0212   -5.8974   -0.0012 C   0  0
   -7.3028   -8.2564   -0.0020 O   0  0
   -9.6597   -8.7163   -0.0022 C   0  0
   -9.3180  -10.1640   -0.0027 N   0  0
   -8.5679  -10.5391   -1.2144 C   0  0
   -8.3200  -12.0593   -1.2074 C   0  0
   -7.5594  -12.4323   -0.0035 N   0  0
   -8.3200  -12.0601    1.2007 C   0  0
   -8.5680  -10.5400    1.2088 C   0  0
   -7.3302  -13.8840   -0.0041 C   0  0
  1  2  2  0
  2  3  1  0
  3  4  2  0
  4  5  1  0
  5  6  2  0
  6  1  1  0
  4  7  1  0
  7  8  1  0
  8  9  1  0
  9  5  1  0
  9 10  2  0
  8 11  2  0
 10 12  1  0
 10 13  1  0
 12 14  1  0
 13 15  2  0
 15 16  1  0
 16 17  2  0
 17 18  1  0
 18 19  2  0
 19 13  1  0
 14 20  2  0
 20 21  1  0
 21 22  2  0
 22 23  1  0
 23 24  2  0
 24 14  1  0
 22 25  1  0
 25 26  1  0
 25 27  1  0
 26 28  2  0
 26 29  1  0
 29 30  1  0
 30 31  1  0
 31 32  1  0
 32 33  1  0
 33 34  1  0
 34 35  1  0
 35 30  1  0
 33 36  1  0
M  END
