Crizotinib
  SciTegic01111223113D

 30 33  0  0  0  0            999 V2000
    2.4954   -2.3459   -1.2649 C   0  0
    2.4748   -1.4402    0.0005 C   0  0
    1.1761   -0.6951   -0.0001 C   0  0
    1.1721    0.6944    0.0000 C   0  0
   -0.0333    1.3860    0.0000 C   0  0
   -1.2349    0.6876   -0.0001 C   0  0
   -1.2305   -0.7021   -0.0002 C   0  0
   -0.0251   -1.3932   -0.0003 C   0  0
   -0.0195   -3.1102   -0.0005 Cl  0  0
   -2.3874   -1.3756   -0.0004 F   0  0
    2.6573    1.5559    0.0001 Cl  0  0
    3.5544   -0.4763   -0.0413 O   0  0
    4.8226   -0.9922    0.3378 C   0  0
    5.9218   -0.1414    0.3123 C   0  0
    7.1157   -0.5672    0.7117 N   0  0
    7.2997   -1.8095    1.1459 C   0  0
    6.2400   -2.7070    1.1953 C   0  0
    4.9796   -2.2965    0.7859 C   0  0
    6.4525   -4.0757    1.6759 C   0  0
    7.6485   -4.5897    2.1037 C   0  0
    7.3466   -5.8409    2.4331 N   0  0
    6.1179   -6.1138    2.2472 N   0  0
    5.4856   -5.0446    1.7684 C   0  0
    8.3005   -6.7798    2.9419 C   0  0
    9.4248   -6.9762    1.9153 C   0  0
   10.4637   -7.9550    2.4943 C   0  0
   11.0253   -7.4061    3.7446 N   0  0
    9.9625   -7.2387    4.7558 C   0  0
    8.9082   -6.2391    4.2438 C   0  0
    5.7666    1.2022   -0.1476 N   0  0
  1  2  1  0
  2  3  1  0
  3  4  2  3
  4  5  1  0
  5  6  2  3
  6  7  1  0
  7  8  2  3
  8  3  1  0
  8  9  1  0
  7 10  1  0
  4 11  1  0
  2 12  1  0
 12 13  1  0
 13 14  2  3
 14 15  1  0
 15 16  2  3
 16 17  1  0
 17 18  2  3
 18 13  1  0
 17 19  1  0
 19 20  2  3
 20 21  1  0
 21 22  1  0
 22 23  2  3
 23 19  1  0
 21 24  1  0
 24 25  1  0
 25 26  1  0
 26 27  1  0
 27 28  1  0
 28 29  1  0
 29 24  1  0
 14 30  1  0
M  END
