EXEL_2880
  SciTegic01111223113D

 46 51  0  0  0  0            999 V2000
    3.5449   -0.5072   -0.0002 C   0  0
    2.4295   -1.4088   -0.0003 O   0  0
    1.2192   -0.7068   -0.0002 C   0  0
    1.2212    0.6830   -0.0001 C   0  0
    0.0170    1.3759    0.0000 C   0  0
    0.0051    2.7631    0.0001 C   0  0
   -1.2162    3.4206    0.0002 C   0  0
   -2.3866    2.6713    0.0002 C   0  0
   -2.3432    1.3429    0.0000 N   0  0
   -1.1887    0.6850    0.0000 C   0  0
   -1.1884   -0.7046   -0.0002 C   0  0
    0.0146   -1.3999   -0.0003 C   0  0
    0.0123   -2.7976   -0.0004 O   0  0
   -1.3295   -3.3070   -0.0005 C   0  0
   -1.2910   -4.8508   -0.0007 C   0  0
   -2.7317   -5.4089   -0.0007 C   0  0
   -2.7117   -6.8874   -0.0010 N   0  0
   -2.0228   -7.3836   -1.1987 C   0  0
   -2.0174   -8.9241   -1.1768 C   0  0
   -1.3373   -9.3872   -0.0019 O   0  0
   -2.0163   -8.9248    1.1741 C   0  0
   -2.0225   -7.3841    1.1963 C   0  0
    1.2454    3.5163    0.0002 O   0  0
    1.3295    4.9737    0.0003 C   0  0
    2.6167    5.5049    0.0003 C   0  0
    2.8035    6.8822    0.0004 C   0  0
    1.7040    7.7323    0.0005 C   0  0
    0.4181    7.2052    0.0005 C   0  0
    0.2313    5.8280    0.0004 C   0  0
    1.8947    9.1360    0.0005 N   0  0
    3.1636    9.7644   -0.0132 C   0  0
    4.2132    9.1125   -0.0392 O   0  0
    3.2343   11.2601    0.0005 C   0  0
    3.2029   11.9938   -1.2741 C   0  0
    4.4817   11.9294   -0.3994 C   0  0
    2.4532   11.7787    1.1684 C   0  0
    1.2621   12.0695    1.0134 O   0  0
    3.1005   11.9242    2.4200 N   0  0
    2.4611   12.3942    3.5957 C   0  0
    1.1153   12.7438    3.6019 C   0  0
    0.5200   13.1975    4.7728 C   0  0
    1.2705   13.3018    5.9380 C   0  0
    2.6158   12.9527    5.9332 C   0  0
    3.2110   12.4991    4.7624 C   0  0
    0.6980   13.7387    7.0665 F   0  0
    3.6755    4.6856    0.0002 F   0  0
  1  2  1  0
  2  3  1  0
  3  4  2  3
  4  5  1  0
  5  6  2  3
  6  7  1  0
  7  8  2  3
  8  9  1  0
  9 10  2  3
 10  5  1  0
 10 11  1  0
 11 12  2  3
 12  3  1  0
 12 13  1  0
 13 14  1  0
 14 15  1  0
 15 16  1  0
 16 17  1  0
 17 18  1  0
 18 19  1  0
 19 20  1  0
 20 21  1  0
 21 22  1  0
 22 17  1  0
  6 23  1  0
 23 24  1  0
 24 25  2  3
 25 26  1  0
 26 27  2  3
 27 28  1  0
 28 29  2  3
 29 24  1  0
 27 30  1  0
 30 31  1  0
 31 32  2  0
 31 33  1  0
 33 34  1  0
 34 35  1  0
 35 33  1  0
 33 36  1  0
 36 37  2  0
 36 38  1  0
 38 39  1  0
 39 40  2  3
 40 41  1  0
 41 42  2  3
 42 43  1  0
 43 44  2  3
 44 39  1  0
 42 45  1  0
 25 46  1  0
M  END
