HKI_272
  SciTegic01111223113D

 40 43  0  0  0  0            999 V2000
    3.6040   -3.4450   -0.0006 C   0  0
    2.2629   -2.6937    0.0000 C   0  0
    2.4868   -1.2723    0.0009 O   0  0
    1.2527   -0.6255    0.0009 C   0  0
    1.1724    0.7605    0.0016 C   0  0
   -0.0782    1.3867    0.0012 C   0  0
   -1.2502    0.6248    0.0003 C   0  0
   -1.1386   -0.7637    0.0000 C   0  0
    0.0972   -1.3822    0.0002 C   0  0
   -2.2006   -1.5437   -0.0009 N   0  0
   -3.4070   -1.0217   -0.0022 C   0  0
   -3.6160    0.3477   -0.0023 C   0  0
   -2.5127    1.2335   -0.0007 C   0  0
   -2.4887    2.7911   -0.0004 N   0  0
   -3.6838    3.7066    0.0004 C   0  0
   -4.9799    3.2373    0.0020 C   0  0
   -6.0815    4.0708    0.0026 C   0  0
   -5.8999    5.4395    0.0018 C   0  0
   -4.6053    5.9528    0.0006 C   0  0
   -3.5058    5.0903   -0.0001 C   0  0
   -7.0318    6.2456    0.0023 O   0  0
   -6.7105    7.6209    0.0014 C   0  0
   -8.0008    8.3796    0.0018 C   0  0
   -9.2051    7.6840    0.0021 C   0  0
  -10.3993    8.3908    0.0025 C   0  0
  -10.3484    9.7773    0.0026 C   0  0
   -9.1121   10.4124    0.0023 C   0  0
   -7.9860    9.7074    0.0019 N   0  0
   -7.6672    3.4037    0.0040 Cl  0  0
   -4.9860    0.6569   -0.0052 C   0  0
   -6.1183    0.8679   -0.0070 N   0  0
    2.3931    1.4707    0.0023 N   0  0
    2.5132    2.8648    0.0034 C   0  0
    1.5201    3.5992    0.0050 O   0  0
    3.8557    3.4488   -0.0002 C   0  0
    4.0203    4.7684   -0.0031 C   0  0
    5.4071    5.3448   -0.0098 C   0  0
    5.3298    6.8115   -0.0460 N   0  0
    6.6874    7.3740   -0.0661 C   0  0
    4.6158    7.2956    1.1444 C   0  0
  1  2  1  0
  2  3  1  0
  3  4  1  0
  4  5  2  3
  5  6  1  0
  6  7  2  3
  7  8  1  0
  8  9  2  3
  9  4  1  0
  8 10  1  0
 10 11  2  3
 11 12  1  0
 12 13  2  3
 13  7  1  0
 13 14  1  0
 14 15  1  0
 15 16  2  3
 16 17  1  0
 17 18  2  3
 18 19  1  0
 19 20  2  3
 20 15  1  0
 18 21  1  0
 21 22  1  0
 22 23  1  0
 23 24  2  3
 24 25  1  0
 25 26  2  3
 26 27  1  0
 27 28  2  3
 28 23  1  0
 17 29  1  0
 12 30  1  0
 30 31  3  0
  5 32  1  0
 32 33  1  0
 33 34  2  0
 33 35  1  0
 35 36  2  3
 36 37  1  0
 37 38  1  0
 38 39  1  0
 38 40  1  0
M  END
