MLN_120B
  SciTegic01111223113D

 26 29  0  0  0  0            999 V2000
    3.2018   -5.9006   -0.0002 C   0  0
    4.2841   -4.8435    0.0001 C   0  0
    4.0091   -3.4669    0.0000 C   0  0
    5.0767   -2.5792    0.0005 C   0  0
    6.3724   -3.0772    0.0009 C   0  0
    6.5740   -4.4504    0.0009 C   0  0
    5.5392   -5.2795    0.0006 N   0  0
    2.6066   -2.9145   -0.0007 C   0  0
    1.6761   -3.7038   -0.0030 O   0  0
    2.3686   -1.4694    0.0004 N   0  0
    1.0647   -0.7318    0.0003 C   0  0
    1.1262    0.6628    0.0002 C   0  0
   -0.0213    1.4175    0.0000 C   0  0
   -1.2800    0.8792   -0.0003 C   0  0
   -1.3824   -0.5077   -0.0001 C   0  0
   -0.2190   -1.3220    0.0002 C   0  0
   -0.2595   -2.7490    0.0007 O   0  0
   -1.4881   -3.4695    0.0006 C   0  0
   -3.0253   -1.0800   -0.0002 Cl  0  0
    0.3733    2.7365    0.0000 C   0  0
    1.7415    2.7210    0.0002 C   0  0
    2.2005    1.4609    0.0003 N   0  0
    2.4394    3.9199    0.0004 C   0  0
    1.7311    5.0529    0.0003 N   0  0
    0.3927    5.0787    0.0001 C   0  0
   -0.3603    3.9048    0.0000 C   0  0
  1  2  1  0
  2  3  2  3
  3  4  1  0
  4  5  2  3
  5  6  1  0
  6  7  2  3
  7  2  1  0
  3  8  1  0
  8  9  2  0
  8 10  1  0
 10 11  1  0
 11 12  2  3
 12 13  1  0
 13 14  2  3
 14 15  1  0
 15 16  2  3
 16 11  1  0
 16 17  1  0
 17 18  1  0
 15 19  1  0
 13 20  1  0
 20 21  2  3
 21 22  1  0
 22 12  1  0
 21 23  1  0
 23 24  2  3
 24 25  1  0
 25 26  2  3
 26 20  1  0
M  END
