PHA_665752
  SciTegic01111223113D

 43 48  0  0  0  0            999 V2000
    3.9680   -5.3121    0.1407 C   0  0
    4.8596   -4.0964    0.0880 C   0  0
    4.4019   -2.7906    0.0213 C   0  0
    5.4375   -1.9726   -0.0229 N   0  0
    6.5563   -2.6861    0.0104 C   0  0
    6.2528   -4.0556    0.0901 C   0  0
    7.1362   -5.3474    0.1544 C   0  0
    6.5302   -6.4196    0.2426 O   0  0
    8.5910   -5.4806    0.0536 N   0  0
    9.5689   -4.4534    0.2657 C   0  0
   10.8367   -5.2477    0.6520 C   0  0
   10.7084   -6.4654   -0.2508 C   0  0
    9.2092   -6.7850   -0.0868 C   0  0
    8.6099   -7.7549   -1.2025 C   0  0
    8.5042   -7.2378   -2.6308 N   0  0
    7.5959   -6.0635   -2.7555 C   0  0
    8.3157   -5.0980   -3.7025 C   0  0
    9.7643   -5.3395   -3.3314 C   0  0
    9.7932   -6.8721   -3.2804 C   0  0
    7.8669   -1.9860   -0.0384 C   0  0
    2.9943   -2.3691    0.0034 C   0  0
    2.6193   -1.0791   -0.0090 C   0  0
    1.2740   -0.6221   -0.0134 C   0  0
    1.2651    0.7657   -0.0105 C   0  0
    0.0777    1.4720   -0.0057 C   0  0
   -1.1118    0.7415   -0.0010 C   0  0
   -1.0909   -0.6559   -0.0027 C   0  0
    0.1129   -1.3566   -0.0101 C   0  0
   -2.5732   -1.5916    0.0091 S   0  0
   -2.5181   -2.4897    1.2302 O   0  0
   -2.5962   -2.4132   -1.2658 O   0  0
   -4.0464   -0.5397    0.0860 C   0  0
   -5.4297   -1.2510    0.0933 C   0  0
   -5.6396   -2.6390    0.0663 C   0  0
   -6.9351   -3.1419    0.0761 C   0  0
   -8.0317   -2.2949    0.1118 C   0  0
   -7.8306   -0.9241    0.1383 C   0  0
   -6.5399   -0.4113    0.1294 C   0  0
   -6.3141    1.2935    0.1623 Cl  0  0
   -4.3862   -3.8118    0.0203 Cl  0  0
    2.5823    1.2757   -0.0077 N   0  0
    3.4434    0.1463   -0.0062 C   0  0
    4.6741    0.2159    0.0054 O   0  0
  1  2  1  0
  2  3  2  3
  3  4  1  0
  4  5  1  0
  5  6  2  3
  6  2  1  0
  6  7  1  0
  7  8  2  0
  7  9  1  0
  9 10  1  0
 10 11  1  0
 11 12  1  0
 12 13  1  0
 13  9  1  0
 13 14  1  0
 14 15  1  0
 15 16  1  0
 16 17  1  0
 17 18  1  0
 18 19  1  0
 19 15  1  0
  5 20  1  0
  3 21  1  0
 21 22  2  3
 22 23  1  0
 23 24  2  3
 24 25  1  0
 25 26  2  3
 26 27  1  0
 27 28  2  3
 28 23  1  0
 27 29  1  0
 29 30  2  0
 29 31  2  0
 29 32  1  0
 32 33  1  0
 33 34  2  3
 34 35  1  0
 35 36  2  3
 36 37  1  0
 37 38  2  3
 38 33  1  0
 38 39  1  0
 34 40  1  0
 24 41  1  0
 41 42  1  0
 42 22  1  0
 42 43  2  0
M  END
