R406
  SciTegic01111223113D

 34 37  0  0  0  0            999 V2000
    2.4478   -0.7432   -1.1428 C   0  0
    1.3587   -0.3448   -0.1363 C   0  0
    1.3191    1.1468    0.0116 C   0  0
    2.3847    1.7721    0.0601 O   0  0
    0.1069    1.8153    0.2103 N   0  0
   -1.0875    1.1505   -0.0379 C   0  0
   -1.0492   -0.1718   -0.4606 C   0  0
    0.1275   -0.9248   -0.5993 O   0  0
   -2.2357   -0.8022   -0.7834 C   0  0
   -3.4309   -0.1472   -0.5661 C   0  0
   -3.4243    1.1551   -0.1021 C   0  0
   -2.2604    1.7774    0.1085 N   0  0
   -4.6897    1.8457    0.0973 N   0  0
   -5.9454    1.0156    0.0485 C   0  0
   -5.9795   -0.3270    0.0298 N   0  0
   -7.1437   -0.9898    0.0114 C   0  0
   -8.2926   -0.3198   -0.0029 N   0  0
   -8.3365    1.0019    0.0275 C   0  0
   -7.1481    1.7084    0.0623 C   0  0
   -7.1623    3.0498    0.0835 F   0  0
   -7.2935   -2.4763   -0.0376 N   0  0
   -6.1661   -3.4247    0.0672 C   0  0
   -4.8650   -3.0680    0.4001 C   0  0
   -3.8415   -4.0238    0.3886 C   0  0
   -4.0985   -5.3319   -0.0331 C   0  0
   -5.4216   -5.7045   -0.2329 C   0  0
   -6.4432   -4.7677   -0.1646 C   0  0
   -5.6998   -7.0725   -0.3638 O   0  0
   -7.1073   -7.3128   -0.3603 C   0  0
   -3.1244   -6.3982   -0.1803 O   0  0
   -1.7322   -6.0723   -0.0380 C   0  0
   -2.5816   -3.6724    0.8620 O   0  0
   -2.6564   -2.4756    1.6214 C   0  0
    1.7316   -0.9505    1.2366 C   0  0
  1  2  1  0
  2  3  1  0
  3  4  2  0
  3  5  1  0
  5  6  1  0
  6  7  2  3
  7  8  1  0
  8  2  1  0
  7  9  1  0
  9 10  2  3
 10 11  1  0
 11 12  2  3
 12  6  1  0
 11 13  1  0
 13 14  1  0
 14 15  2  3
 15 16  1  0
 16 17  2  3
 17 18  1  0
 18 19  2  3
 19 14  1  0
 19 20  1  0
 16 21  1  0
 21 22  1  0
 22 23  2  3
 23 24  1  0
 24 25  2  3
 25 26  1  0
 26 27  2  3
 27 22  1  0
 26 28  1  0
 28 29  1  0
 25 30  1  0
 30 31  1  0
 24 32  1  0
 32 33  1  0
  2 34  1  0
M  END
