SGX_523
  SciTegic01111223113D

 26 30  0  0  0  0            999 V2000
    5.9678   -1.5703   -0.0006 C   0  0
    4.5460   -1.7264   -0.0005 N   0  0
    3.6933   -0.7076   -0.0003 C   0  0
    2.4669   -1.3189   -0.0004 C   0  0
    2.6406   -2.6798   -0.0006 C   0  0
    3.9602   -2.8558   -0.0007 N   0  0
    1.1753   -0.6257   -0.0002 C   0  0
    1.1423    0.7067    0.0000 N   0  0
    0.0229    1.2915    0.0001 N   0  0
   -1.1328    0.6780   -0.0001 C   0  0
   -2.1089    1.5794    0.0000 N   0  0
   -1.5657    2.7344    0.0001 N   0  0
   -0.2418    2.5814    0.0002 C   0  0
    0.9574    3.8893    0.0003 S   0  0
    0.2090    5.5071    0.0014 C   0  0
   -1.1726    5.6543    0.0013 C   0  0
   -1.7330    6.9253    0.0021 C   0  0
   -0.9168    8.0503    0.0030 C   0  0
    0.4649    7.9015    0.0031 C   0  0
    1.0275    6.6308    0.0023 C   0  0
   -1.4475    9.2682    0.0036 N   0  0
   -2.7637    9.4511    0.0035 C   0  0
   -3.6324    8.3662    0.0026 C   0  0
   -3.1115    7.0804    0.0019 C   0  0
   -1.2259   -0.7015   -0.0002 C   0  0
   -0.0068   -1.3689   -0.0003 C   0  0
  1  2  1  0
  2  3  1  0
  3  4  2  3
  4  5  1  0
  5  6  2  3
  6  2  1  0
  4  7  1  0
  7  8  2  3
  8  9  1  0
  9 10  1  0
 10 11  2  3
 11 12  1  0
 12 13  2  3
 13  9  1  0
 13 14  1  0
 14 15  1  0
 15 16  2  3
 16 17  1  0
 17 18  2  3
 18 19  1  0
 19 20  2  3
 20 15  1  0
 18 21  1  0
 21 22  2  3
 22 23  1  0
 23 24  2  3
 24 17  1  0
 10 25  1  0
 25 26  2  3
 26  7  1  0
M  END
