
 OpenBabel10141417483D

 26 30  0  0  1  0  0  0  0  0999 V2000
    7.5042   -9.6091    0.6549 C   0  0  0  0  0  0  0  0  0  0  0  0
    6.8807  -10.4121    1.8006 C   0  0  1  0  0  0  0  0  0  0  0  0
    6.4086   -9.5253    2.9706 C   0  0  0  0  0  0  0  0  0  0  0  0
    6.9822   -8.1287    2.8719 C   0  0  0  0  0  0  0  0  0  0  0  0
    8.4685   -8.0516    2.5215 C   0  0  2  0  0  0  0  0  0  0  0  0
    8.6420   -8.6743    1.0967 C   0  0  0  0  0  0  0  0  0  0  0  0
    6.1862   -7.0460    2.9437 C   0  0  0  0  0  0  0  0  0  0  0  0
    6.6348   -5.6476    2.6391 C   0  0  0  0  0  0  0  0  0  0  0  0
    7.9748   -5.6065    1.8727 C   0  0  2  0  0  0  0  0  0  0  0  0
    8.9938   -6.5618    2.5307 C   0  0  2  0  0  0  0  0  0  0  0  0
    9.3868   -4.5179    4.0938 C   0  0  0  0  0  0  0  0  0  0  0  0
    9.3884   -6.0410    3.9332 C   0  0  0  0  0  0  0  0  0  0  0  0
    5.7825  -11.1685    1.2872 O   0  0  0  0  0  0  0  0  0  0  0  0
    9.3137   -8.8990    3.5102 C   0  0  0  0  0  0  0  0  0  0  0  0
    9.3852   -2.2124    3.0887 C   0  0  0  0  0  0  0  0  0  0  0  0
   10.8716   -3.9774    2.0521 C   0  0  0  0  0  0  0  0  0  0  0  0
    9.5638   -3.7182    2.7947 C   0  0  2  0  0  0  0  0  0  0  0  0
    8.4997   -4.1465    1.7258 C   0  0  1  0  0  0  0  0  0  0  0  0
    9.2197   -3.9343    0.3761 C   0  0  0  0  0  0  0  0  0  0  0  0
   10.6602   -4.0675    0.7289 C   0  0  0  0  0  0  0  0  0  0  0  0
   12.1992   -4.1316    2.6661 C   0  0  0  0  0  0  0  0  0  0  0  0
   12.6355   -3.3816    3.7552 C   0  0  0  0  0  0  0  0  0  0  0  0
   13.0984   -5.0939    2.1868 C   0  0  0  0  0  0  0  0  0  0  0  0
   13.8443   -3.5146    4.3602 N   0  0  0  0  0  0  0  0  0  0  0  0
   14.3488   -5.2573    2.7822 C   0  0  0  0  0  0  0  0  0  0  0  0
   14.6730   -4.4502    3.8567 C   0  0  0  0  0  0  0  0  0  0  0  0
  1  2  1  0  0  0  0
  1  6  1  0  0  0  0
  2  3  1  0  0  0  0
  2 13  1  6  0  0  0
  3  4  1  0  0  0  0
  4  5  1  0  0  0  0
  4  7  2  0  0  0  0
  5  6  1  0  0  0  0
  5 10  1  0  0  0  0
  5 14  1  6  0  0  0
  7  8  1  0  0  0  0
  9  8  1  1  0  0  0
  9 10  1  0  0  0  0
  9 18  1  0  0  0  0
 10 12  1  6  0  0  0
 11 12  1  0  0  0  0
 16 17  1  0  0  0  0
 16 20  2  0  0  0  0
 16 21  1  0  0  0  0
 17 11  1  0  0  0  0
 17 15  1  6  0  0  0
 17 18  1  0  0  0  0
 18 19  1  6  0  0  0
 19 20  1  0  0  0  0
 22 21  1  0  0  0  0
 23 21  2  0  0  0  0
 24 22  2  0  0  0  0
 25 23  1  0  0  0  0
 26 24  1  0  0  0  0
 26 25  2  0  0  0  0
M  END
