1193
 OpenBabel10141417483D

 24 24  0  0  1  0  0  0  0  0999 V2000
    1.0895   -0.4043   -0.3641 O   0  0  0  0  0  0  0  0  0  0  0  0
   -0.9638   -2.7913    1.5751 O   0  0  0  0  0  0  0  0  0  0  0  0
    2.0795    3.2431   -1.7581 O   0  0  0  0  0  0  0  0  0  0  0  0
    6.5297    3.0658   -0.3345 O   0  0  0  0  0  0  0  0  0  0  0  0
   -2.9316   -0.5965    1.4486 N   0  0  0  0  0  0  0  0  0  0  0  0
    6.5702    0.8343   -0.9661 N   0  0  0  0  0  0  0  0  0  0  0  0
   -0.7626   -1.6827    0.6823 C   0  0  3  0  0  0  0  0  0  0  0  0
   -1.4690   -0.4357    1.2630 C   0  0  0  0  0  0  0  0  0  0  0  0
   -3.5704    0.6297    1.9798 C   0  0  0  0  0  0  0  0  0  0  0  0
    0.7675   -1.5046    0.4999 C   0  0  0  0  0  0  0  0  0  0  0  0
   -5.0802    0.3951    2.1308 C   0  0  0  0  0  0  0  0  0  0  0  0
   -3.0078    1.0699    3.3369 C   0  0  0  0  0  0  0  0  0  0  0  0
    2.4240   -0.1266   -0.5582 C   0  0  0  0  0  0  0  0  0  0  0  0
    2.8090    1.1949   -0.8499 C   0  0  0  0  0  0  0  0  0  0  0  0
    5.1762    0.5528   -0.9262 C   0  0  0  0  0  0  0  0  0  0  0  0
    4.1748    1.5204   -1.0423 C   0  0  0  0  0  0  0  0  0  0  0  0
    3.4227   -1.1105   -0.5641 C   0  0  0  0  0  0  0  0  0  0  0  0
    4.7783   -0.7732   -0.7490 C   0  0  0  0  0  0  0  0  0  0  0  0
    8.6730    2.1056   -0.7718 C   0  0  0  0  0  0  0  0  0  0  0  0
    9.3728    1.9566    0.5855 C   0  0  0  0  0  0  0  0  0  0  0  0
    1.8460    2.3287   -0.9690 C   0  0  0  0  0  0  0  0  0  0  0  0
    7.1539    2.0554   -0.6879 C   0  0  0  0  0  0  0  0  0  0  0  0
    8.9741    3.0446    1.5751 C   0  0  0  0  0  0  0  0  0  0  0  0
    0.6126    2.3576   -0.1089 C   0  0  0  0  0  0  0  0  0  0  0  0
  1 10  1  0  0  0  0
  1 13  1  0  0  0  0
  2  7  1  0  0  0  0
  3 21  2  0  0  0  0
  4 22  2  0  0  0  0
  5  8  1  0  0  0  0
  5  9  1  0  0  0  0
  6 15  1  0  0  0  0
  6 22  1  0  0  0  0
  7  8  1  0  0  0  0
  7 10  1  0  0  0  0
  9 11  1  0  0  0  0
  9 12  1  0  0  0  0
 13 14  2  0  0  0  0
 13 17  1  0  0  0  0
 14 16  1  0  0  0  0
 14 21  1  0  0  0  0
 15 16  2  0  0  0  0
 15 18  1  0  0  0  0
 17 18  2  0  0  0  0
 19 20  1  0  0  0  0
 19 22  1  0  0  0  0
 20 23  1  0  0  0  0
 21 24  1  0  0  0  0
M  END
