1615
 OpenBabel10141417483D

 23 25  0  0  1  0  0  0  0  0999 V2000
    0.0151   -2.2321    0.4836 S   0  0  0  0  0  0  0  0  0  0  0  0
    4.8829    2.3814   -0.2994 O   0  0  0  0  0  0  0  0  0  0  0  0
   -0.0020    0.8218   -0.3700 N   0  0  0  0  0  0  0  0  0  0  0  0
   -0.1844    4.5826   -1.4627 N   0  0  0  0  0  0  0  0  0  0  0  0
   -0.0759    3.0953   -1.6534 C   0  0  3  0  0  0  0  0  0  0  0  0
   -0.0945    2.3144   -0.2826 C   0  0  0  0  0  0  0  0  0  0  0  0
    1.2654    0.2201   -0.0974 C   0  0  0  0  0  0  0  0  0  0  0  0
   -1.2453    0.1124   -0.4296 C   0  0  0  0  0  0  0  0  0  0  0  0
    1.1754    2.7633   -2.4869 C   0  0  0  0  0  0  0  0  0  0  0  0
    1.3894   -1.1594    0.1663 C   0  0  0  0  0  0  0  0  0  0  0  0
   -1.3555   -1.2384   -0.0374 C   0  0  0  0  0  0  0  0  0  0  0  0
    2.4788    0.9459   -0.1348 C   0  0  0  0  0  0  0  0  0  0  0  0
   -0.1492    5.3161   -2.7365 C   0  0  0  0  0  0  0  0  0  0  0  0
   -1.3846    4.9863   -0.7251 C   0  0  0  0  0  0  0  0  0  0  0  0
   -2.4358    0.7113   -0.8977 C   0  0  0  0  0  0  0  0  0  0  0  0
    3.7425    0.3289   -0.0335 C   0  0  0  0  0  0  0  0  0  0  0  0
    2.6495   -1.7779    0.2665 C   0  0  0  0  0  0  0  0  0  0  0  0
   -2.5988   -1.9037   -0.0341 C   0  0  0  0  0  0  0  0  0  0  0  0
    3.8192   -1.0426    0.1425 C   0  0  0  0  0  0  0  0  0  0  0  0
   -3.6639    0.0349   -0.9295 C   0  0  0  0  0  0  0  0  0  0  0  0
   -3.7508   -1.2697   -0.4763 C   0  0  0  0  0  0  0  0  0  0  0  0
    4.9722    1.1722   -0.1455 C   0  0  0  0  0  0  0  0  0  0  0  0
    6.3130    0.4786   -0.0766 C   0  0  0  0  0  0  0  0  0  0  0  0
  1 10  1  0  0  0  0
  1 11  1  0  0  0  0
  2 22  2  0  0  0  0
  3  6  1  0  0  0  0
  3  7  1  0  0  0  0
  3  8  1  0  0  0  0
  4  5  1  0  0  0  0
  4 13  1  0  0  0  0
  4 14  1  0  0  0  0
  5  6  1  0  0  0  0
  5  9  1  0  0  0  0
  7 10  2  0  0  0  0
  7 12  1  0  0  0  0
  8 11  1  0  0  0  0
  8 15  2  0  0  0  0
 10 17  1  0  0  0  0
 11 18  2  0  0  0  0
 12 16  2  0  0  0  0
 15 20  1  0  0  0  0
 16 19  1  0  0  0  0
 16 22  1  0  0  0  0
 17 19  2  0  0  0  0
 18 21  1  0  0  0  0
 20 21  2  0  0  0  0
 22 23  1  0  0  0  0
M  END
