
 OpenBabel10141417483D

 23 25  0  0  0  0  0  0  0  0999 V2000
    0.0353   -2.1173    0.1419 S   0  0  0  0  0  0  0  0  0  0  0  0
    4.8296    2.5580   -0.4567 O   0  0  0  0  0  0  0  0  0  0  0  0
   -0.0505    1.0568    0.0346 N   0  0  0  0  0  0  0  0  0  0  0  0
   -1.2847    5.3521    0.4336 N   0  0  0  0  0  0  0  0  0  0  0  0
   -0.0812    2.5475   -0.0963 C   0  0  0  0  0  0  0  0  0  0  0  0
   -0.1195    3.2437    1.2748 C   0  0  0  0  0  0  0  0  0  0  0  0
    1.2366    0.4326    0.0955 C   0  0  0  0  0  0  0  0  0  0  0  0
   -1.3011    0.3599   -0.0148 C   0  0  0  0  0  0  0  0  0  0  0  0
   -0.1513    4.7836    1.1852 C   0  0  0  0  0  0  0  0  0  0  0  0
    1.3852   -0.9703    0.1080 C   0  0  0  0  0  0  0  0  0  0  0  0
   -1.3764   -1.0489    0.0541 C   0  0  0  0  0  0  0  0  0  0  0  0
    2.4431    1.1733    0.1182 C   0  0  0  0  0  0  0  0  0  0  0  0
   -2.5443    1.0220   -0.1373 C   0  0  0  0  0  0  0  0  0  0  0  0
    3.7127    0.5648    0.0888 C   0  0  0  0  0  0  0  0  0  0  0  0
    2.6595   -1.5776    0.0907 C   0  0  0  0  0  0  0  0  0  0  0  0
   -2.6165   -1.7264    0.0429 C   0  0  0  0  0  0  0  0  0  0  0  0
    3.8201   -0.8171    0.0723 C   0  0  0  0  0  0  0  0  0  0  0  0
   -3.7746    0.3454   -0.1584 C   0  0  0  0  0  0  0  0  0  0  0  0
   -2.5713    5.0733    1.0753 C   0  0  0  0  0  0  0  0  0  0  0  0
   -1.1193    6.8052    0.2868 C   0  0  0  0  0  0  0  0  0  0  0  0
   -3.8134   -1.0324   -0.0533 C   0  0  0  0  0  0  0  0  0  0  0  0
    4.9168    1.4443    0.0301 C   0  0  0  0  0  0  0  0  0  0  0  0
    6.2060    0.9311    0.6211 C   0  0  0  0  0  0  0  0  0  0  0  0
  1 10  1  0  0  0  0
  1 11  1  0  0  0  0
  2 22  2  0  0  0  0
  3  5  1  0  0  0  0
  3  7  1  0  0  0  0
  3  8  1  0  0  0  0
  4  9  1  0  0  0  0
  4 19  1  0  0  0  0
  4 20  1  0  0  0  0
  5  6  1  0  0  0  0
  6  9  1  0  0  0  0
  7 10  2  0  0  0  0
  7 12  1  0  0  0  0
  8 11  1  0  0  0  0
  8 13  2  0  0  0  0
 10 15  1  0  0  0  0
 11 16  2  0  0  0  0
 12 14  2  0  0  0  0
 13 18  1  0  0  0  0
 14 17  1  0  0  0  0
 14 22  1  0  0  0  0
 15 17  2  0  0  0  0
 16 21  1  0  0  0  0
 18 21  2  0  0  0  0
 22 23  1  0  0  0  0
M  END
