
 OpenBabel10141417493D

 10  9  0  0  1  0  0  0  0  0999 V2000
    0.8323    0.1218   -3.0876 S   0  0  0  0  0  0  0  0  0  0  0  0
    2.7775   -3.8592   -0.9934 O   0  0  0  0  0  0  0  0  0  0  0  0
    3.0098   -2.2412    0.5395 O   0  0  0  0  0  0  0  0  0  0  0  0
    2.2181   -3.7425   -3.5095 O   0  0  0  0  0  0  0  0  0  0  0  0
    3.3632   -1.8526   -3.0181 N   0  0  0  0  0  0  0  0  0  0  0  0
    2.6809   -1.5206   -1.7558 C   0  0  1  0  0  0  0  0  0  0  0  0
    1.1873   -1.1785   -1.8556 C   0  0  0  0  0  0  0  0  0  0  0  0
    2.8755   -2.5626   -0.6390 C   0  0  0  0  0  0  0  0  0  0  0  0
    3.0768   -2.9233   -3.8176 C   0  0  0  0  0  0  0  0  0  0  0  0
    4.0115   -3.0964   -4.9818 C   0  0  0  0  0  0  0  0  0  0  0  0
  1  7  1  0  0  0  0
  2  8  1  0  0  0  0
  3  8  2  0  0  0  0
  4  9  2  0  0  0  0
  5  9  1  0  0  0  0
  6  8  1  1  0  0  0
  6  7  1  0  0  0  0
  6  5  1  0  0  0  0
  9 10  1  0  0  0  0
M  END
