
 OpenBabel10141417533D

 14 13  0  0  0  0  0  0  0  0999 V2000
    0.8218   -6.0117    0.8060 O   0  0  0  0  0  0  0  0  0  0  0  0
    0.5014   -4.7706    0.3858 C   0  0  0  0  0  0  0  0  0  0  0  0
    1.4491   -3.6911    0.8268 C   0  0  0  0  0  0  0  0  0  0  0  0
    2.0550   -2.9091   -0.3583 C   0  0  2  0  0  0  0  0  0  0  0  0
    0.9932   -2.1416   -1.1995 C   0  0  0  0  0  0  0  0  0  0  0  0
    1.5552   -1.1819   -2.3022 N   0  3  0  0  0  0  0  0  0  0  0  0
    2.3265   -1.9131   -3.3899 C   0  0  0  0  0  0  0  0  0  0  0  0
    0.3642   -0.5091   -3.0003 C   0  0  0  0  0  0  0  0  0  0  0  0
    2.4412   -0.0945   -1.7100 C   0  0  0  0  0  0  0  0  0  0  0  0
    2.8019   -3.8708   -1.1383 O   0  0  0  0  0  0  0  0  0  0  0  0
   -0.4860   -4.5367   -0.3077 O   0  0  0  0  0  0  0  0  0  0  0  0
    4.1484   -3.6697   -1.2256 C   0  0  0  0  0  0  0  0  0  0  0  0
    4.8534   -4.9167   -1.6497 C   0  0  0  0  0  0  0  0  0  0  0  0
    4.7019   -2.6024   -1.0025 O   0  0  0  0  0  0  0  0  0  0  0  0
  1  2  1  0  0  0  0
  2  3  1  0  0  0  0
  2 11  2  0  0  0  0
  4 10  1  6  0  0  0
  4  5  1  0  0  0  0
  4  3  1  0  0  0  0
  5  6  1  0  0  0  0
  6  7  1  0  0  0  0
  6  8  1  0  0  0  0
  6  9  1  0  0  0  0
 10 12  1  0  0  0  0
 12 13  1  0  0  0  0
 12 14  2  0  0  0  0
M  CHG  1   6   1
M  END
