
 OpenBabel10141417493D

 29 32  0  0  0  0  0  0  0  0999 V2000
    0.4036   -1.0103    0.0083 N   0  0  0  0  0  0  0  0  0  0  0  0
    1.5175    1.9587   -0.0183 S   0  0  0  0  0  0  0  0  0  0  0  0
    0.5775   -0.3891   -1.2707 C   0  0  0  0  0  0  0  0  0  0  0  0
    0.7962   -0.4385    1.2652 C   0  0  0  0  0  0  0  0  0  0  0  0
    1.3195    0.8674    1.3606 C   0  0  0  0  0  0  0  0  0  0  0  0
    1.0684    0.9273   -1.3857 C   0  0  0  0  0  0  0  0  0  0  0  0
    0.2653   -1.0311   -2.4987 C   0  0  0  0  0  0  0  0  0  0  0  0
    0.7023   -1.1439    2.4889 C   0  0  0  0  0  0  0  0  0  0  0  0
    1.7363    1.4067    2.5965 C   0  0  0  0  0  0  0  0  0  0  0  0
    1.2348    1.5422   -2.6406 C   0  0  0  0  0  0  0  0  0  0  0  0
    1.6581    0.6663    3.7670 C   0  0  0  0  0  0  0  0  0  0  0  0
    0.9084    0.8851   -3.8189 C   0  0  0  0  0  0  0  0  0  0  0  0
   -0.0205   -2.4369    0.0371 C   0  0  0  0  0  0  0  0  0  0  0  0
    1.2024   -3.3658    0.0323 C   0  0  0  0  0  0  0  0  0  0  0  0
    0.8101   -4.8516    0.0521 C   0  0  0  0  0  0  0  0  0  0  0  0
    1.9775   -5.7530    0.0686 N   0  0  0  0  0  0  0  0  0  0  0  0
    1.8159   -7.8219   -2.1525 N   0  0  0  0  0  0  0  0  0  0  0  0
    0.9499   -7.8566   -0.9542 C   0  0  0  0  0  0  0  0  0  0  0  0
    2.7814   -5.6725   -1.1731 C   0  0  0  0  0  0  0  0  0  0  0  0
    2.1819   -6.4074   -2.3990 C   0  0  0  0  0  0  0  0  0  0  0  0
    1.5626   -7.1608    0.2872 C   0  0  0  0  0  0  0  0  0  0  0  0
    3.0254   -8.6546   -1.9988 C   0  0  0  0  0  0  0  0  0  0  0  0
    2.7431  -10.1581   -1.8427 C   0  0  0  0  0  0  0  0  0  0  0  0
    3.9630  -10.8841   -1.7085 O   0  0  0  0  0  0  0  0  0  0  0  0
    1.1415   -0.6145    3.7112 C   0  0  0  0  0  0  0  0  0  0  0  0
    0.4116   -0.4132   -3.7674 C   0  0  0  0  0  0  0  0  0  0  0  0
    0.1427   -0.5468   -6.3651 C   0  0  0  0  0  0  0  0  0  0  0  0
    0.0147   -1.1682   -4.9910 C   0  0  0  0  0  0  0  0  0  0  0  0
   -0.4126   -2.3156   -4.8745 O   0  0  0  0  0  0  0  0  0  0  0  0
  3  1  1  0  0  0  0
  4  1  1  0  0  0  0
  5  2  1  0  0  0  0
  5  4  2  0  0  0  0
  6  2  1  0  0  0  0
  6  3  1  0  0  0  0
  7  3  2  0  0  0  0
  8  4  1  0  0  0  0
  9  5  1  0  0  0  0
 10  6  2  0  0  0  0
 11  9  2  0  0  0  0
 12 10  1  0  0  0  0
 12 26  2  0  0  0  0
 13  1  1  0  0  0  0
 14 13  1  0  0  0  0
 15 14  1  0  0  0  0
 16 15  1  0  0  0  0
 18 17  1  0  0  0  0
 19 16  1  0  0  0  0
 20 17  1  0  0  0  0
 20 19  1  0  0  0  0
 21 16  1  0  0  0  0
 21 18  1  0  0  0  0
 22 17  1  0  0  0  0
 23 22  1  0  0  0  0
 24 23  1  0  0  0  0
 25  8  2  0  0  0  0
 25 11  1  0  0  0  0
 26  7  1  0  0  0  0
 26 28  1  0  0  0  0
 28 27  1  0  0  0  0
 28 29  2  0  0  0  0
M  END
