640
 OpenBabel10141419013D

 19 21  0  0  1  0  0  0  0  0999 V2000
   -0.6756   -0.8914    0.2030 O   0  0  0  0  0  0  0  0  0  0  0  0
    1.6788    0.6916    1.5078 O   0  0  0  0  0  0  0  0  0  0  0  0
    0.1525    2.6108    0.5198 O   0  0  0  0  0  0  0  0  0  0  0  0
   -2.3297    0.5733   -1.6622 O   0  0  0  0  0  0  0  0  0  0  0  0
    0.9452   -1.4283   -1.4405 N   0  0  0  0  0  0  0  0  0  0  0  0
    0.5411   -2.2741   -3.4620 N   0  0  0  0  0  0  0  0  0  0  0  0
    3.3799   -1.4253   -1.4594 N   0  0  0  0  0  0  0  0  0  0  0  0
    4.2476   -2.2710   -3.5702 N   0  0  0  0  0  0  0  0  0  0  0  0
    2.8906   -2.9870   -5.3564 N   0  0  0  0  0  0  0  0  0  0  0  0
    1.2861    0.4906    0.1320 C   0  0  1  0  0  0  0  0  0  0  0  0
    0.7393   -0.9240   -0.0954 C   0  0  1  0  0  0  0  0  0  0  0  0
    0.0670    1.3513   -0.1406 C   0  0  1  0  0  0  0  0  0  0  0  0
   -1.0605    0.4859    0.4117 C   0  0  1  0  0  0  0  0  0  0  0  0
   -2.4097    0.7674   -0.2505 C   0  0  0  0  0  0  0  0  0  0  0  0
    2.1730   -1.6532   -2.0045 C   0  0  0  0  0  0  0  0  0  0  0  0
   -0.0006   -1.8248   -2.3472 C   0  0  0  0  0  0  0  0  0  0  0  0
    1.9005   -2.1601   -3.2647 C   0  0  0  0  0  0  0  0  0  0  0  0
    3.0071   -2.4685   -4.0726 C   0  0  0  0  0  0  0  0  0  0  0  0
    4.3619   -1.7640   -2.3234 C   0  0  0  0  0  0  0  0  0  0  0  0
  1 11  1  0  0  0  0
  1 13  1  0  0  0  0
  4 14  1  0  0  0  0
  5 15  1  0  0  0  0
  5 16  1  0  0  0  0
  6 16  2  0  0  0  0
  6 17  1  0  0  0  0
  7 15  2  0  0  0  0
  7 19  1  0  0  0  0
  8 18  1  0  0  0  0
  8 19  2  0  0  0  0
  9 18  1  0  0  0  0
 10 11  1  0  0  0  0
 10 12  1  0  0  0  0
 10  2  1  1  0  0  0
 11  5  1  6  0  0  0
 12 13  1  0  0  0  0
 12  3  1  1  0  0  0
 13 14  1  6  0  0  0
 15 17  1  0  0  0  0
 17 18  2  0  0  0  0
M  END
