
 OpenBabel10141417493D

 31 33  0  0  0  0  0  0  0  0999 V2000
    1.9209    2.3381    1.5828 N   0  0  0  0  0  0  0  0  0  0  0  0
    1.9730    1.1266    0.9030 C   0  0  0  0  0  0  0  0  0  0  0  0
    0.8381    0.6831    0.3183 N   0  0  0  0  0  0  0  0  0  0  0  0
    0.8811   -0.4836   -0.3604 C   0  0  0  0  0  0  0  0  0  0  0  0
    1.9344   -1.3057   -0.5502 N   0  0  0  0  0  0  0  0  0  0  0  0
    3.0286   -0.8399    0.0754 C   0  0  0  0  0  0  0  0  0  0  0  0
    3.1317    0.3340    0.8081 C   0  0  0  0  0  0  0  0  0  0  0  0
    4.4064    0.4833    1.3165 N   0  0  0  0  0  0  0  0  0  0  0  0
    5.0605   -0.5809    0.8992 C   0  0  0  0  0  0  0  0  0  0  0  0
    4.2778   -1.4019    0.1288 N   0  0  0  0  0  0  0  0  0  0  0  0
    4.7008   -2.6262   -0.5221 C   0  0  2  0  0  0  0  0  0  0  0  0
    5.2346   -3.5229    0.4743 O   0  0  0  0  0  0  0  0  0  0  0  0
    6.3764   -4.2237   -0.0915 C   0  0  1  0  0  0  0  0  0  0  0  0
    6.4185   -3.8334   -1.5733 C   0  0  1  0  0  0  0  0  0  0  0  0
    5.5707   -4.6941   -2.3463 O   0  0  0  0  0  0  0  0  0  0  0  0
    5.8217   -2.4334   -1.5505 C   0  0  1  0  0  0  0  0  0  0  0  0
    5.3919   -2.0419   -2.8502 O   0  0  0  0  0  0  0  0  0  0  0  0
    7.6155   -4.1949    2.0155 O   0  0  0  0  0  0  0  0  0  0  0  0
    9.1222   -2.2735    3.0432 O   0  0  0  0  0  0  0  0  0  0  0  0
    8.8238   -3.7381    2.9682 P   0  0  3  0  0  0  0  0  0  0  0  0
   10.0548   -4.5438    2.3276 O   0  0  0  0  0  0  0  0  0  0  0  0
    8.6123   -4.4678    4.3640 O   0  0  0  0  0  0  0  0  0  0  0  0
    9.6925   -2.9061    6.1591 O   0  0  0  0  0  0  0  0  0  0  0  0
    8.5151   -3.7405    5.7651 P   0  0  3  0  0  0  0  0  0  0  0  0
    8.3491   -4.9764    6.7820 O   0  0  0  0  0  0  0  0  0  0  0  0
    7.1009   -3.0436    5.8850 O   0  0  0  0  0  0  0  0  0  0  0  0
    6.3175   -2.2967    3.5151 O   0  0  0  0  0  0  0  0  0  0  0  0
    5.1880   -1.4387    5.6285 O   0  0  0  0  0  0  0  0  0  0  0  0
    6.5420   -1.9114    4.9250 P   0  0  0  0  0  0  0  0  0  0  0  0
    7.4972   -0.6508    5.1139 O   0  0  0  0  0  0  0  0  0  0  0  0
    7.6592   -3.8019    0.6503 C   0  0  0  0  0  0  0  0  0  0  0  0
  1  2  1  0  0  0  0
  2  3  2  0  0  0  0
  2  7  1  0  0  0  0
  3  4  1  0  0  0  0
  4  5  2  0  0  0  0
  5  6  1  0  0  0  0
  6  7  2  0  0  0  0
  6 10  1  0  0  0  0
  7  8  1  0  0  0  0
  8  9  2  0  0  0  0
  9 10  1  0  0  0  0
 11 10  1  1  0  0  0
 11 12  1  0  0  0  0
 11 16  1  0  0  0  0
 12 13  1  0  0  0  0
 13 14  1  0  0  0  0
 13 31  1  1  0  0  0
 14 15  1  6  0  0  0
 14 16  1  0  0  0  0
 16 17  1  6  0  0  0
 18 20  1  0  0  0  0
 20 19  2  0  0  0  0
 20 22  1  0  0  0  0
 20 21  1  0  0  0  0
 22 24  1  0  0  0  0
 24 23  2  0  0  0  0
 24 26  1  0  0  0  0
 24 25  1  0  0  0  0
 26 29  1  0  0  0  0
 29 27  2  0  0  0  0
 29 28  1  0  0  0  0
 29 30  1  0  0  0  0
 31 18  1  0  0  0  0
M  END
