546
 OpenBabel10141418363D

 25 28  0  0  0  0  0  0  0  0999 V2000
    0.7743   -0.7404    0.6914 Cl  0  0  0  0  0  0  0  0  0  0  0  0
    6.6554    0.0209    0.4069 N   0  0  0  0  0  0  0  0  0  0  0  0
    6.4123    3.4324    0.2294 N   0  0  0  0  0  0  0  0  0  0  0  0
    6.5683   -2.9673   -0.0674 N   0  0  0  0  0  0  0  0  0  0  0  0
    8.6809    0.8862    0.5087 N   0  0  0  0  0  0  0  0  0  0  0  0
    8.7592   -0.4190    0.9064 N   0  0  0  0  0  0  0  0  0  0  0  0
    5.2485   -0.1515    0.3726 C   0  0  0  0  0  0  0  0  0  0  0  0
    7.4322    1.1419    0.1612 C   0  0  0  0  0  0  0  0  0  0  0  0
    7.5592   -0.9463    0.7955 C   0  0  0  0  0  0  0  0  0  0  0  0
    4.6725   -1.3897    0.0311 C   0  0  0  0  0  0  0  0  0  0  0  0
    7.0099    2.3636   -0.5942 C   0  0  0  0  0  0  0  0  0  0  0  0
    7.1562   -2.3362    1.1106 C   0  0  0  0  0  0  0  0  0  0  0  0
    5.4624   -2.5200   -0.5560 C   0  0  0  0  0  0  0  0  0  0  0  0
    4.4171    0.8964    0.7941 C   0  0  0  0  0  0  0  0  0  0  0  0
    3.2838   -1.5709    0.1573 C   0  0  0  0  0  0  0  0  0  0  0  0
    4.9455   -3.1765   -1.8065 C   0  0  0  0  0  0  0  0  0  0  0  0
    3.0341    0.7165    0.8815 C   0  0  0  0  0  0  0  0  0  0  0  0
    2.4746   -0.5171    0.5709 C   0  0  0  0  0  0  0  0  0  0  0  0
    7.3467    3.9207    1.2491 C   0  0  0  0  0  0  0  0  0  0  0  0
    6.0063    4.5442   -0.6365 C   0  0  0  0  0  0  0  0  0  0  0  0
    4.2011   -2.4623   -2.7563 C   0  0  0  0  0  0  0  0  0  0  0  0
    5.2406   -4.5256   -2.0381 C   0  0  0  0  0  0  0  0  0  0  0  0
    3.7220   -3.1046   -3.9002 C   0  0  0  0  0  0  0  0  0  0  0  0
    4.7659   -5.1620   -3.1868 C   0  0  0  0  0  0  0  0  0  0  0  0
    4.0009   -4.4536   -4.1124 C   0  0  0  0  0  0  0  0  0  0  0  0
  1 18  1  0  0  0  0
  2  7  1  0  0  0  0
  2  8  1  0  0  0  0
  2  9  1  0  0  0  0
  3 11  1  0  0  0  0
  3 19  1  0  0  0  0
  3 20  1  0  0  0  0
  4 12  1  0  0  0  0
  4 13  2  0  0  0  0
  5  6  1  0  0  0  0
  5  8  2  0  0  0  0
  6  9  2  0  0  0  0
  7 10  2  0  0  0  0
  7 14  1  0  0  0  0
  8 11  1  0  0  0  0
  9 12  1  0  0  0  0
 10 13  1  0  0  0  0
 10 15  1  0  0  0  0
 13 16  1  0  0  0  0
 14 17  2  0  0  0  0
 15 18  2  0  0  0  0
 16 21  2  0  0  0  0
 16 22  1  0  0  0  0
 17 18  1  0  0  0  0
 21 23  1  0  0  0  0
 22 24  2  0  0  0  0
 23 25  2  0  0  0  0
 24 25  1  0  0  0  0
M  END
