
 OpenBabel10141417523D

 34 37  0  0  1  0  0  0  0  0999 V2000
  -11.0311    4.6210   -5.3747 C   0  0  0  0  0  0  0  0  0  0  0  0
  -11.1304    5.8480   -4.8534 N   0  0  0  0  0  0  0  0  0  0  0  0
  -10.4260    6.1007   -3.7399 C   0  0  0  0  0  0  0  0  0  0  0  0
   -9.6177    5.1031   -3.1713 C   0  0  0  0  0  0  0  0  0  0  0  0
   -9.5862    3.8689   -3.8019 C   0  0  0  0  0  0  0  0  0  0  0  0
  -10.3059    3.6079   -4.8909 N   0  0  0  0  0  0  0  0  0  0  0  0
   -8.8115    5.2918   -2.0492 C   0  0  0  0  0  0  0  0  0  0  0  0
   -7.8302    4.3873   -1.6532 C   0  0  0  0  0  0  0  0  0  0  0  0
   -7.8528    3.0910   -2.2203 C   0  0  0  0  0  0  0  0  0  0  0  0
   -8.7638    2.8791   -3.2811 C   0  0  0  0  0  0  0  0  0  0  0  0
  -10.4961    7.3813   -3.1238 N   0  0  0  0  0  0  0  0  0  0  0  0
   -6.8355    4.8616   -0.7494 N   0  0  0  0  0  0  0  0  0  0  0  0
   -6.6634    6.2359   -0.4562 C   0  0  0  0  0  0  0  0  0  0  0  0
   -5.5774    6.4720    0.5265 C   0  0  0  0  0  0  0  0  0  0  0  0
   -4.8689    7.5987    0.5878 C   0  0  0  0  0  0  0  0  0  0  0  0
  -11.2968    8.4957   -3.4515 C   0  0  0  0  0  0  0  0  0  0  0  0
  -10.9129    9.7731   -3.0052 C   0  0  0  0  0  0  0  0  0  0  0  0
  -11.7236   10.8868   -3.2474 C   0  0  0  0  0  0  0  0  0  0  0  0
  -12.9471   10.7285   -3.8897 C   0  0  0  0  0  0  0  0  0  0  0  0
  -13.3455    9.4775   -4.3370 C   0  0  0  0  0  0  0  0  0  0  0  0
  -12.5173    8.3737   -4.1285 C   0  0  0  0  0  0  0  0  0  0  0  0
  -13.7641   11.7734   -4.0866 F   0  0  0  0  0  0  0  0  0  0  0  0
  -11.1900   12.4504   -2.7591 Cl  0  0  0  0  0  0  0  0  0  0  0  0
   -7.2703    7.1897   -0.8589 O   0  0  0  0  0  0  0  0  0  0  0  0
   -3.7874    7.9888    1.5767 C   0  0  0  0  0  0  0  0  0  0  0  0
   -2.9886    6.8903    2.1623 N   0  0  0  0  0  0  0  0  0  0  0  0
   -3.7712    6.0038    3.0173 C   0  0  0  0  0  0  0  0  0  0  0  0
   -1.9002    7.4208    2.9995 C   0  0  0  0  0  0  0  0  0  0  0  0
   -7.0114    2.0820   -1.7688 O   0  0  0  0  0  0  0  0  0  0  0  0
   -7.2197    0.7677   -2.3698 C   0  0  1  0  0  0  0  0  0  0  0  0
   -6.4055    0.6126   -3.6432 C   0  0  0  0  0  0  0  0  0  0  0  0
   -5.1069    0.0124   -3.1520 C   0  0  0  0  0  0  0  0  0  0  0  0
   -5.4246   -0.8034   -2.0240 O   0  0  0  0  0  0  0  0  0  0  0  0
   -6.7072   -0.3990   -1.5236 C   0  0  0  0  0  0  0  0  0  0  0  0
  1  2  1  0  0  0  0
  1  6  2  0  0  0  0
  2  3  2  0  0  0  0
  3  4  1  0  0  0  0
  3 11  1  0  0  0  0
  4  5  1  0  0  0  0
  4  7  2  0  0  0  0
  5  6  1  0  0  0  0
  5 10  2  0  0  0  0
  7  8  1  0  0  0  0
  8  9  2  0  0  0  0
  8 12  1  0  0  0  0
  9 10  1  0  0  0  0
  9 29  1  0  0  0  0
 11 16  1  0  0  0  0
 12 13  1  0  0  0  0
 13 14  1  0  0  0  0
 13 24  2  0  0  0  0
 14 15  2  0  0  0  0
 15 25  1  0  0  0  0
 16 17  2  0  0  0  0
 16 21  1  0  0  0  0
 17 18  1  0  0  0  0
 18 19  2  0  0  0  0
 18 23  1  0  0  0  0
 19 20  1  0  0  0  0
 19 22  1  0  0  0  0
 20 21  2  0  0  0  0
 25 26  1  0  0  0  0
 26 27  1  0  0  0  0
 26 28  1  0  0  0  0
 30 31  1  0  0  0  0
 30 34  1  0  0  0  0
 30 29  1  1  0  0  0
 31 32  1  0  0  0  0
 32 33  1  0  0  0  0
 33 34  1  0  0  0  0
M  END
