518
 OpenBabel10141417493D

 18 19  0  0  0  0  0  0  0  0999 V2000
    0.4441    0.1908   -0.3613 S   0  0  0  0  0  0  0  0  0  0  0  0
   -1.8855   -0.7740    8.8468 O   0  0  0  0  0  0  0  0  0  0  0  0
   -0.3533    0.3683    7.5864 O   0  0  0  0  0  0  0  0  0  0  0  0
   -1.0168   -0.2015    4.7060 N   0  0  0  0  0  0  0  0  0  0  0  0
   -0.7729   -2.4030    4.8405 N   0  0  0  0  0  0  0  0  0  0  0  0
   -1.7019   -1.3074    6.7296 N   0  0  0  0  0  0  0  0  0  0  0  0
   -0.5801   -0.5969    3.4675 C   0  0  0  0  0  0  0  0  0  0  0  0
   -0.3443   -1.9594    3.6143 C   0  0  0  0  0  0  0  0  0  0  0  0
    0.1629   -0.6400    1.1986 C   0  0  0  0  0  0  0  0  0  0  0  0
   -0.3703    0.0942    2.2700 C   0  0  0  0  0  0  0  0  0  0  0  0
    0.2384   -2.6693    2.5574 C   0  0  0  0  0  0  0  0  0  0  0  0
   -1.1400   -1.3213    5.4855 C   0  0  0  0  0  0  0  0  0  0  0  0
   -0.5247   -0.8888   -1.4798 C   0  0  0  0  0  0  0  0  0  0  0  0
    0.5059   -1.9889    1.3610 C   0  0  0  0  0  0  0  0  0  0  0  0
   -0.4805   -0.4166   -2.9343 C   0  0  0  0  0  0  0  0  0  0  0  0
    0.8839   -0.5387   -3.6010 C   0  0  0  0  0  0  0  0  0  0  0  0
   -1.2291   -0.4674    7.6963 C   0  0  0  0  0  0  0  0  0  0  0  0
   -1.4288   -0.0955   10.0147 C   0  0  0  0  0  0  0  0  0  0  0  0
  1  9  1  0  0  0  0
  1 13  1  0  0  0  0
  2 17  1  0  0  0  0
  2 18  1  0  0  0  0
  3 17  2  0  0  0  0
  4  7  1  0  0  0  0
  4 12  1  0  0  0  0
  5  8  1  0  0  0  0
  5 12  2  0  0  0  0
  6 12  1  0  0  0  0
  6 17  1  0  0  0  0
  7  8  2  0  0  0  0
  7 10  1  0  0  0  0
  8 11  1  0  0  0  0
  9 10  2  0  0  0  0
  9 14  1  0  0  0  0
 11 14  2  0  0  0  0
 13 15  1  0  0  0  0
 15 16  1  0  0  0  0
M  END
