1258
 OpenBabel10141417543D

 39 39  0  0  1  0  0  0  0  0999 V2000
    2.1019   -0.0306    0.3917 O   0  0  0  0  0  0  0  0  0  0  0  0
    4.6196   -2.4959   -2.1416 O   0  0  0  0  0  0  0  0  0  0  0  0
   -0.9490   -1.3746    2.7258 O   0  0  0  0  0  0  0  0  0  0  0  0
   -0.0952   -3.9819    0.9003 O   0  0  0  0  0  0  0  0  0  0  0  0
    7.5011    2.0197    1.9056 O   0  0  0  0  0  0  0  0  0  0  0  0
   -4.8108   -3.4188    3.5938 O   0  0  0  0  0  0  0  0  0  0  0  0
    4.3627    2.8007    1.3991 N   0  0  0  0  0  0  0  0  0  0  0  0
    5.9606   -1.0948   -1.1284 N   0  0  0  0  0  0  0  0  0  0  0  0
    9.0410    1.9706    0.3018 N   0  0  0  0  0  0  0  0  0  0  0  0
    3.3380    0.9056    3.8771 C   0  0  1  0  0  0  0  0  0  0  0  0
    2.5615    1.8504    2.8684 C   0  0  0  0  0  0  0  0  0  0  0  0
    3.0718    2.0995    1.3630 C   0  0  1  0  0  0  0  0  0  0  0  0
    3.2026    0.8485    0.3433 C   0  0  2  0  0  0  0  0  0  0  0  0
    2.7379    0.7964    5.3442 C   0  0  0  0  0  0  0  0  0  0  0  0
    3.5218    1.0731   -1.1884 C   0  0  0  0  0  0  0  0  0  0  0  0
    3.7819   -0.2100   -2.1609 C   0  0  1  0  0  0  0  0  0  0  0  0
    3.6784   -0.4839    3.3149 C   0  0  0  0  0  0  0  0  0  0  0  0
    4.0425    0.2054   -3.6760 C   0  0  0  0  0  0  0  0  0  0  0  0
    1.3029    0.2791    5.4772 C   0  0  0  0  0  0  0  0  0  0  0  0
    3.5926   -0.0929    6.2747 C   0  0  0  0  0  0  0  0  0  0  0  0
    4.7899   -1.3249   -1.7718 C   0  0  0  0  0  0  0  0  0  0  0  0
    2.6018   -1.4234    2.8719 C   0  0  0  0  0  0  0  0  0  0  0  0
    5.3145    1.0342   -3.8602 C   0  0  0  0  0  0  0  0  0  0  0  0
    4.0582   -0.9482   -4.7217 C   0  0  0  0  0  0  0  0  0  0  0  0
    6.5283    0.1545   -0.6517 C   0  0  0  0  0  0  0  0  0  0  0  0
    7.5161    0.0108    0.5159 C   0  0  0  0  0  0  0  0  0  0  0  0
    1.2582   -1.0869    2.8272 C   0  0  0  0  0  0  0  0  0  0  0  0
    2.9510   -2.6520    2.3421 C   0  0  0  0  0  0  0  0  0  0  0  0
    0.2542   -1.9204    2.3519 C   0  0  0  0  0  0  0  0  0  0  0  0
    1.9889   -3.4149    1.6707 C   0  0  0  0  0  0  0  0  0  0  0  0
    6.8067   -0.7049    1.6742 C   0  0  0  0  0  0  0  0  0  0  0  0
    8.7185   -0.8131    0.0746 C   0  0  0  0  0  0  0  0  0  0  0  0
    0.6200   -3.0729    1.6483 C   0  0  0  0  0  0  0  0  0  0  0  0
    7.9836    1.4214    1.0175 C   0  0  0  0  0  0  0  0  0  0  0  0
   -1.9281   -2.3322    3.0340 C   0  0  0  0  0  0  0  0  0  0  0  0
   -3.2478   -1.9278    2.3710 C   0  0  0  0  0  0  0  0  0  0  0  0
   -1.4943   -3.8853    0.7094 C   0  0  0  0  0  0  0  0  0  0  0  0
   -4.3121   -3.0267    2.3198 C   0  0  0  0  0  0  0  0  0  0  0  0
   -3.9026   -4.1330    4.4186 C   0  0  0  0  0  0  0  0  0  0  0  0
  2 21  2  0  0  0  0
  3 29  1  0  0  0  0
  3 35  1  0  0  0  0
  4 33  1  0  0  0  0
  4 37  1  0  0  0  0
  5 34  2  0  0  0  0
  6 38  1  0  0  0  0
  6 39  1  0  0  0  0
  8 21  1  0  0  0  0
  8 25  1  0  0  0  0
  9 34  1  0  0  0  0
 10 11  1  6  0  0  0
 10 14  1  0  0  0  0
 10 17  1  0  0  0  0
 11 12  1  0  0  0  0
 12  7  1  6  0  0  0
 13 15  1  6  0  0  0
 13 12  1  0  0  0  0
 13  1  1  0  0  0  0
 14 19  1  0  0  0  0
 14 20  1  0  0  0  0
 16 15  1  1  0  0  0
 16 18  1  0  0  0  0
 16 21  1  0  0  0  0
 17 22  1  0  0  0  0
 18 23  1  0  0  0  0
 18 24  1  0  0  0  0
 22 27  2  0  0  0  0
 22 28  1  0  0  0  0
 25 26  1  0  0  0  0
 26 31  1  0  0  0  0
 26 32  1  0  0  0  0
 26 34  1  0  0  0  0
 27 29  1  0  0  0  0
 28 30  2  0  0  0  0
 29 33  2  0  0  0  0
 30 33  1  0  0  0  0
 35 36  1  0  0  0  0
 36 38  1  0  0  0  0
M  END
