1425
 OpenBabel10141417493D

 23 25  0  0  1  0  0  0  0  0999 V2000
    4.7359    0.1673   -1.3615 O   0  0  0  0  0  0  0  0  0  0  0  0
    1.7857   -1.0139    1.1317 O   0  0  0  0  0  0  0  0  0  0  0  0
    4.6146   -3.4191   -4.0321 N   0  0  0  0  0  0  0  0  0  0  0  0
    3.5313   -1.7110   -0.8182 N   0  0  0  0  0  0  0  0  0  0  0  0
    5.6926    2.1749    3.2956 N   0  0  0  0  0  0  0  0  0  0  0  0
    3.7355    1.9554    4.4937 N   0  0  0  0  0  0  0  0  0  0  0  0
    4.9636    2.4765    4.3760 N   0  0  0  0  0  0  0  0  0  0  0  0
    4.8378   -2.7323   -2.7335 C   0  0  3  0  0  0  0  0  0  0  0  0
    5.5858   -3.7529   -1.8720 C   0  0  0  0  0  0  0  0  0  0  0  0
    5.2180   -5.0929   -2.4711 C   0  0  0  0  0  0  0  0  0  0  0  0
    5.1894   -4.7718   -3.9518 C   0  0  0  0  0  0  0  0  0  0  0  0
    3.4692   -2.2943   -2.1543 C   0  0  0  0  0  0  0  0  0  0  0  0
    5.1632   -2.6839   -5.1759 C   0  0  0  0  0  0  0  0  0  0  0  0
    4.5401   -1.3295   -5.3606 C   0  0  0  0  0  0  0  0  0  0  0  0
    4.0994   -0.4782   -0.5463 C   0  0  0  0  0  0  0  0  0  0  0  0
    3.9395    0.0296    0.8672 C   0  0  0  0  0  0  0  0  0  0  0  0
    3.4488   -1.0822   -6.0963 C   0  0  0  0  0  0  0  0  0  0  0  0
    2.7559   -0.1846    1.6606 C   0  0  0  0  0  0  0  0  0  0  0  0
    5.0398    0.7902    1.3389 C   0  0  0  0  0  0  0  0  0  0  0  0
    4.8566    1.3930    2.5943 C   0  0  0  0  0  0  0  0  0  0  0  0
    2.5537    0.4434    2.9154 C   0  0  0  0  0  0  0  0  0  0  0  0
    3.6229    1.2383    3.3636 C   0  0  0  0  0  0  0  0  0  0  0  0
    1.0007   -1.7382    2.0812 C   0  0  0  0  0  0  0  0  0  0  0  0
  1 15  2  0  0  0  0
  2 18  1  0  0  0  0
  2 23  1  0  0  0  0
  3  8  1  0  0  0  0
  3 11  1  0  0  0  0
  3 13  1  0  0  0  0
  4 12  1  0  0  0  0
  4 15  1  0  0  0  0
  5  7  1  0  0  0  0
  5 20  2  0  0  0  0
  6  7  1  0  0  0  0
  6 22  2  0  0  0  0
  8  9  1  0  0  0  0
  8 12  1  0  0  0  0
  9 10  1  0  0  0  0
 10 11  1  0  0  0  0
 13 14  1  0  0  0  0
 14 17  2  0  0  0  0
 15 16  1  0  0  0  0
 16 18  1  0  0  0  0
 16 19  2  0  0  0  0
 18 21  2  0  0  0  0
 19 20  1  0  0  0  0
 20 22  1  0  0  0  0
 21 22  1  0  0  0  0
M  END
