437
 OpenBabel10141417493D

 10 11  0  0  0  0  0  0  0  0999 V2000
    0.8996   -0.1623   -0.0477 O   0  0  0  0  0  0  0  0  0  0  0  0
    4.7629    2.4527   -0.1296 N   0  0  0  0  0  0  0  0  0  0  0  0
    3.6630    3.2518    0.1376 N   0  0  0  0  0  0  0  0  0  0  0  0
    4.9671    0.0516   -0.1456 N   0  0  0  0  0  0  0  0  0  0  0  0
    2.9393   -1.2198   -0.1092 N   0  0  0  0  0  0  0  0  0  0  0  0
    2.8311    1.1420   -0.0198 C   0  0  0  0  0  0  0  0  0  0  0  0
    4.2945    1.1470   -0.1157 C   0  0  0  0  0  0  0  0  0  0  0  0
    2.5317    2.4424    0.1006 C   0  0  0  0  0  0  0  0  0  0  0  0
    2.1230   -0.1193   -0.0643 C   0  0  0  0  0  0  0  0  0  0  0  0
    4.2294   -1.1078   -0.1393 C   0  0  0  0  0  0  0  0  0  0  0  0
  1  9  2  0  0  0  0
  2  3  1  0  0  0  0
  2  7  1  0  0  0  0
  3  8  1  0  0  0  0
  4  7  2  0  0  0  0
  4 10  1  0  0  0  0
  5  9  1  0  0  0  0
  5 10  2  0  0  0  0
  6  7  1  0  0  0  0
  6  8  2  0  0  0  0
  6  9  1  0  0  0  0
M  END
