1430
 OpenBabel10141417503D

 35 38  0  0  0  0  0  0  0  0999 V2000
   12.4647    6.3183   -1.1623 F   0  0  0  0  0  0  0  0  0  0  0  0
   12.8302   -1.4917    3.7835 F   0  0  0  0  0  0  0  0  0  0  0  0
    8.2010    1.8528    0.6650 N   0  0  0  0  0  0  0  0  0  0  0  0
    6.0053    2.5149    2.3885 N   0  0  0  0  0  0  0  0  0  0  0  0
    5.3734    2.4553    4.6313 N   0  0  0  0  0  0  0  0  0  0  0  0
    4.4767    4.0891    3.2196 N   0  0  0  0  0  0  0  0  0  0  0  0
    3.9440    4.0783    5.4947 N   0  0  0  0  0  0  0  0  0  0  0  0
    5.0471    2.5725    6.9306 N   0  0  0  0  0  0  0  0  0  0  0  0
    2.9647    5.6376    4.0393 N   0  0  0  0  0  0  0  0  0  0  0  0
    7.2455    2.9254    0.2591 C   0  0  0  0  0  0  0  0  0  0  0  0
    7.4053    0.7647    1.2812 C   0  0  0  0  0  0  0  0  0  0  0  0
    9.2987    2.3967    1.5216 C   0  0  0  0  0  0  0  0  0  0  0  0
    5.9160    3.0967    1.0543 C   0  0  0  0  0  0  0  0  0  0  0  0
    6.5162    1.1473    2.4957 C   0  0  0  0  0  0  0  0  0  0  0  0
   10.1117    3.4870    0.7578 C   0  0  0  0  0  0  0  0  0  0  0  0
   10.2451    1.3104    2.1083 C   0  0  0  0  0  0  0  0  0  0  0  0
    5.2446    3.0178    3.4238 C   0  0  0  0  0  0  0  0  0  0  0  0
   10.2373    4.7890    1.2760 C   0  0  0  0  0  0  0  0  0  0  0  0
   10.0184    0.7864    3.3968 C   0  0  0  0  0  0  0  0  0  0  0  0
   10.7316    3.2137   -0.4815 C   0  0  0  0  0  0  0  0  0  0  0  0
   11.3614    0.8065    1.4101 C   0  0  0  0  0  0  0  0  0  0  0  0
   11.0139    5.7488    0.6128 C   0  0  0  0  0  0  0  0  0  0  0  0
   10.8755   -0.1752    3.9510 C   0  0  0  0  0  0  0  0  0  0  0  0
   11.5530    4.1499   -1.1105 C   0  0  0  0  0  0  0  0  0  0  0  0
   12.2388   -0.1201    1.9726 C   0  0  0  0  0  0  0  0  0  0  0  0
   11.6875    5.4112   -0.5555 C   0  0  0  0  0  0  0  0  0  0  0  0
   11.9878   -0.6042    3.2404 C   0  0  0  0  0  0  0  0  0  0  0  0
    4.7756    3.0593    5.6369 C   0  0  0  0  0  0  0  0  0  0  0  0
    3.8229    4.5664    4.2628 C   0  0  0  0  0  0  0  0  0  0  0  0
    5.1357    3.6373    7.9211 C   0  0  0  0  0  0  0  0  0  0  0  0
    2.7892    6.5173    5.1822 C   0  0  0  0  0  0  0  0  0  0  0  0
    6.4444    3.5344    8.6682 C   0  0  0  0  0  0  0  0  0  0  0  0
    1.8178    7.5907    4.7887 C   0  0  0  0  0  0  0  0  0  0  0  0
    7.6685    3.6467    8.1493 C   0  0  0  0  0  0  0  0  0  0  0  0
    2.0880    8.9031    4.7875 C   0  0  0  0  0  0  0  0  0  0  0  0
  1 26  1  0  0  0  0
  2 27  1  0  0  0  0
  3 10  1  0  0  0  0
  3 11  1  0  0  0  0
  3 12  1  0  0  0  0
  4 13  1  0  0  0  0
  4 14  1  0  0  0  0
  4 17  1  0  0  0  0
  5 17  2  0  0  0  0
  5 28  1  0  0  0  0
  6 17  1  0  0  0  0
  6 29  2  0  0  0  0
  7 28  2  0  0  0  0
  7 29  1  0  0  0  0
  8 28  1  0  0  0  0
  8 30  1  0  0  0  0
  9 29  1  0  0  0  0
  9 31  1  0  0  0  0
 10 13  1  0  0  0  0
 11 14  1  0  0  0  0
 12 15  1  0  0  0  0
 12 16  1  0  0  0  0
 15 18  2  0  0  0  0
 15 20  1  0  0  0  0
 16 19  2  0  0  0  0
 16 21  1  0  0  0  0
 18 22  1  0  0  0  0
 19 23  1  0  0  0  0
 20 24  2  0  0  0  0
 21 25  2  0  0  0  0
 22 26  2  0  0  0  0
 23 27  2  0  0  0  0
 24 26  1  0  0  0  0
 25 27  1  0  0  0  0
 30 32  1  0  0  0  0
 31 33  1  0  0  0  0
 32 34  2  0  0  0  0
 33 35  2  0  0  0  0
M  END
