918
 OpenBabel10141417493D

 23 25  0  0  0  0  0  0  0  0999 V2000
    3.8111   -0.5494   -0.6273 S   0  0  0  0  0  0  0  0  0  0  0  0
    4.4411    0.7204   -0.9527 O   0  0  0  0  0  0  0  0  0  0  0  0
    4.5737   -1.6602   -0.0994 O   0  0  0  0  0  0  0  0  0  0  0  0
    3.0692   -1.0877   -2.0543 N   0  0  0  0  0  0  0  0  0  0  0  0
    3.9248    2.5205    5.0649 N   0  0  0  0  0  0  0  0  0  0  0  0
    0.9967    6.6648    2.0102 N   0  0  0  0  0  0  0  0  0  0  0  0
    2.0972   -0.1957   -2.7362 C   0  0  0  0  0  0  0  0  0  0  0  0
    2.5598   -2.4768   -2.0754 C   0  0  0  0  0  0  0  0  0  0  0  0
    0.8761   -1.0793   -2.9702 C   0  0  0  0  0  0  0  0  0  0  0  0
    1.4906   -2.4535   -3.1567 C   0  0  0  0  0  0  0  0  0  0  0  0
    2.3709   -0.2563    0.4191 C   0  0  0  0  0  0  0  0  0  0  0  0
    2.7764    0.4217    1.6966 C   0  0  0  0  0  0  0  0  0  0  0  0
    3.1545    2.4651    2.9775 C   0  0  0  0  0  0  0  0  0  0  0  0
    2.7657    1.8277    1.7820 C   0  0  0  0  0  0  0  0  0  0  0  0
    3.2490    3.8335    3.3908 C   0  0  0  0  0  0  0  0  0  0  0  0
    3.5516    1.6701    4.0513 C   0  0  0  0  0  0  0  0  0  0  0  0
    3.1517   -0.3373    2.8084 C   0  0  0  0  0  0  0  0  0  0  0  0
    2.8902    5.0477    2.5806 C   0  0  0  0  0  0  0  0  0  0  0  0
    3.5478    0.2715    4.0021 C   0  0  0  0  0  0  0  0  0  0  0  0
    3.7528    3.8230    4.6785 C   0  0  0  0  0  0  0  0  0  0  0  0
    1.4216    5.4757    2.7853 C   0  0  0  0  0  0  0  0  0  0  0  0
   -0.4137    6.9592    2.2890 C   0  0  0  0  0  0  0  0  0  0  0  0
    1.8082    7.8456    2.3101 C   0  0  0  0  0  0  0  0  0  0  0  0
  1  2  2  0  0  0  0
  1  3  2  0  0  0  0
  1  4  1  0  0  0  0
  1 11  1  0  0  0  0
  4  7  1  0  0  0  0
  4  8  1  0  0  0  0
  5 16  1  0  0  0  0
  5 20  1  0  0  0  0
  6 21  1  0  0  0  0
  6 22  1  0  0  0  0
  6 23  1  0  0  0  0
  7  9  1  0  0  0  0
  8 10  1  0  0  0  0
  9 10  1  0  0  0  0
 11 12  1  0  0  0  0
 12 14  2  0  0  0  0
 12 17  1  0  0  0  0
 13 14  1  0  0  0  0
 13 15  1  0  0  0  0
 13 16  2  0  0  0  0
 15 18  1  0  0  0  0
 15 20  2  0  0  0  0
 16 19  1  0  0  0  0
 17 19  2  0  0  0  0
 18 21  1  0  0  0  0
M  END
