770
 OpenBabel10141417503D

 25 25  0  0  1  0  0  0  0  0999 V2000
    0.8653   -3.4087    0.6306 O   0  0  0  0  0  0  0  0  0  0  0  0
    2.9739   -2.4465   -3.3531 O   0  0  0  0  0  0  0  0  0  0  0  0
   -1.9854    1.0084   -1.9077 O   0  0  0  0  0  0  0  0  0  0  0  0
    7.1732    2.2065    1.2845 O   0  0  0  0  0  0  0  0  0  0  0  0
    7.9181    4.2541    1.0014 O   0  0  0  0  0  0  0  0  0  0  0  0
    2.6898   -1.3177   -1.2345 C   0  0  1  0  0  0  0  0  0  0  0  0
    1.2742   -1.3541   -0.6354 C   0  0  2  0  0  0  0  0  0  0  0  0
    0.7409   -2.7978   -0.6483 C   0  0  1  0  0  0  0  0  0  0  0  0
    1.5327   -3.5095   -1.7350 C   0  0  0  0  0  0  0  0  0  0  0  0
    3.8824   -1.4445   -0.2793 C   0  0  0  0  0  0  0  0  0  0  0  0
    2.4927   -2.4450   -2.2248 C   0  0  0  0  0  0  0  0  0  0  0  0
    3.9598   -0.3387    0.8140 C   0  0  0  0  0  0  0  0  0  0  0  0
    0.4696   -0.4526   -1.5348 C   0  0  0  0  0  0  0  0  0  0  0  0
    4.1742    1.0942    0.2955 C   0  0  0  0  0  0  0  0  0  0  0  0
   -0.5069   -0.7425   -2.4094 C   0  0  0  0  0  0  0  0  0  0  0  0
    4.2637    2.1807    1.3942 C   0  0  0  0  0  0  0  0  0  0  0  0
   -1.3780    0.3224   -3.0045 C   0  0  2  0  0  0  0  0  0  0  0  0
   -0.7602    1.3541   -3.9752 C   0  0  0  0  0  0  0  0  0  0  0  0
    4.5296    3.5797    0.7976 C   0  0  0  0  0  0  0  0  0  0  0  0
    0.2942    2.3142   -3.3802 C   0  0  0  0  0  0  0  0  0  0  0  0
    5.8150    3.6796   -0.0308 C   0  0  0  0  0  0  0  0  0  0  0  0
    0.8712    3.3580   -4.3491 C   0  0  0  0  0  0  0  0  0  0  0  0
    2.0506    4.1413   -3.7249 C   0  0  0  0  0  0  0  0  0  0  0  0
    7.0765    3.4612    0.7983 C   0  0  0  0  0  0  0  0  0  0  0  0
    1.7953    5.0462   -2.5234 C   0  0  0  0  0  0  0  0  0  0  0  0
  2 11  2  0  0  0  0
  4 24  1  0  0  0  0
  5 24  2  0  0  0  0
  6  7  1  0  0  0  0
  6 10  1  1  0  0  0
  6 11  1  0  0  0  0
  7  8  1  0  0  0  0
  7 13  1  6  0  0  0
  8  9  1  0  0  0  0
  8  1  1  1  0  0  0
  9 11  1  0  0  0  0
 10 12  1  0  0  0  0
 12 14  1  0  0  0  0
 13 15  2  3  0  0  0
 14 16  1  0  0  0  0
 15 17  1  0  0  0  0
 16 19  1  0  0  0  0
 17  3  1  1  0  0  0
 17 18  1  0  0  0  0
 18 20  1  0  0  0  0
 19 21  1  0  0  0  0
 20 22  1  0  0  0  0
 21 24  1  0  0  0  0
 22 23  1  0  0  0  0
 23 25  1  0  0  0  0
M  END
