488
 OpenBabel10141417543D

 15 15  0  0  0  0  0  0  0  0999 V2000
    0.9615    0.0328    0.3357 N   0  0  0  0  0  0  0  0  0  0  0  0
   -2.5800    1.8597    2.8161 N   0  0  0  0  0  0  0  0  0  0  0  0
    0.6940    4.6766    0.9725 N   0  0  0  0  0  0  0  0  0  0  0  0
   -0.8116    0.9593    1.5606 N   0  0  0  0  0  0  0  0  0  0  0  0
    0.8315    2.3537    0.6820 N   0  0  0  0  0  0  0  0  0  0  0  0
   -0.9276    3.2575    1.9084 N   0  0  0  0  0  0  0  0  0  0  0  0
    0.3028    1.1516    0.8639 C   0  0  0  0  0  0  0  0  0  0  0  0
   -1.3985    2.0295    2.0801 C   0  0  0  0  0  0  0  0  0  0  0  0
    0.1891    3.3913    1.2022 C   0  0  0  0  0  0  0  0  0  0  0  0
    0.0746   -1.0776    0.0227 C   0  0  0  0  0  0  0  0  0  0  0  0
    1.9799    0.3480   -0.6550 C   0  0  0  0  0  0  0  0  0  0  0  0
   -2.8493    2.9220    3.7730 C   0  0  0  0  0  0  0  0  0  0  0  0
   -2.8168    0.4988    3.2706 C   0  0  0  0  0  0  0  0  0  0  0  0
    2.1358    4.7192    0.7780 C   0  0  0  0  0  0  0  0  0  0  0  0
    0.1286    5.7099    1.8262 C   0  0  0  0  0  0  0  0  0  0  0  0
  1  7  1  0  0  0  0
  1 10  1  0  0  0  0
  1 11  1  0  0  0  0
  2  8  1  0  0  0  0
  2 12  1  0  0  0  0
  2 13  1  0  0  0  0
  3  9  1  0  0  0  0
  3 14  1  0  0  0  0
  3 15  1  0  0  0  0
  4  7  2  0  0  0  0
  4  8  1  0  0  0  0
  5  7  1  0  0  0  0
  5  9  2  0  0  0  0
  6  8  2  0  0  0  0
  6  9  1  0  0  0  0
M  END
