
 OpenBabel10141417503D

 31 33  0  0  1  0  0  0  0  0999 V2000
   14.2530  -10.4934   -4.5689 O   0  0  0  0  0  0  0  0  0  0  0  0
    9.8116   -4.8236    0.0474 O   0  0  0  0  0  0  0  0  0  0  0  0
    9.8727   -1.8002    3.5929 O   0  0  0  0  0  0  0  0  0  0  0  0
    9.7631   -0.1322    2.0991 O   0  0  0  0  0  0  0  0  0  0  0  0
   10.1270   -8.7786    1.5235 N   0  0  0  0  0  0  0  0  0  0  0  0
   10.5914   -3.7326    1.8727 N   0  0  0  0  0  0  0  0  0  0  0  0
   11.0917  -10.6257   -0.6880 C   0  0  1  0  0  0  0  0  0  0  0  0
   12.0498   -9.6150    0.0715 C   0  0  2  0  0  0  0  0  0  0  0  0
    9.6064  -10.1663   -0.4722 C   0  0  0  0  0  0  0  0  0  0  0  0
   11.5086   -9.2425    1.4754 C   0  0  0  0  0  0  0  0  0  0  0  0
    9.2480   -9.8010    0.9682 C   0  0  0  0  0  0  0  0  0  0  0  0
   11.4179  -10.7877   -2.2073 C   0  0  0  0  0  0  0  0  0  0  0  0
   11.2594  -12.0303   -0.0476 C   0  0  0  0  0  0  0  0  0  0  0  0
   12.4021   -8.3571   -0.7423 C   0  0  0  0  0  0  0  0  0  0  0  0
    9.8496   -7.3981    1.0889 C   0  0  0  0  0  0  0  0  0  0  0  0
   10.5655   -6.2487    1.8849 C   0  0  2  0  0  0  0  0  0  0  0  0
   12.7364  -10.6994   -2.7026 C   0  0  0  0  0  0  0  0  0  0  0  0
   10.4052  -11.0134   -3.1612 C   0  0  0  0  0  0  0  0  0  0  0  0
   10.1925   -6.2048    3.3904 C   0  0  0  0  0  0  0  0  0  0  0  0
   10.2584   -4.8886    1.1908 C   0  0  0  0  0  0  0  0  0  0  0  0
   12.9954  -10.6960   -4.0781 C   0  0  0  0  0  0  0  0  0  0  0  0
   10.6790  -11.0551   -4.5356 C   0  0  0  0  0  0  0  0  0  0  0  0
   11.9757  -10.8730   -4.9976 C   0  0  0  0  0  0  0  0  0  0  0  0
   10.3741   -7.4649    4.2131 C   0  0  0  0  0  0  0  0  0  0  0  0
    9.2909   -8.3390    4.4002 C   0  0  0  0  0  0  0  0  0  0  0  0
   11.6130   -7.8094    4.7729 C   0  0  0  0  0  0  0  0  0  0  0  0
   10.3540   -2.3946    1.3110 C   0  0  0  0  0  0  0  0  0  0  0  0
    9.4497   -9.5457    5.0851 C   0  0  0  0  0  0  0  0  0  0  0  0
   11.7658   -9.0107    5.4764 C   0  0  0  0  0  0  0  0  0  0  0  0
   10.6881   -9.8829    5.6225 C   0  0  0  0  0  0  0  0  0  0  0  0
    9.9743   -1.3347    2.3361 C   0  0  0  0  0  0  0  0  0  0  0  0
  1 21  1  0  0  0  0
  2 20  2  0  0  0  0
  3 31  1  0  0  0  0
  4 31  2  0  0  0  0
  5 10  1  0  0  0  0
  5 11  1  0  0  0  0
  5 15  1  0  0  0  0
  6 20  1  0  0  0  0
  6 27  1  0  0  0  0
  7  8  1  0  0  0  0
  7  9  1  0  0  0  0
  7 13  1  1  0  0  0
  7 12  1  0  0  0  0
  8 10  1  0  0  0  0
  8 14  1  6  0  0  0
  9 11  1  0  0  0  0
 12 17  2  0  0  0  0
 12 18  1  0  0  0  0
 16 20  1  6  0  0  0
 16 19  1  0  0  0  0
 16 15  1  0  0  0  0
 17 21  1  0  0  0  0
 18 22  2  0  0  0  0
 19 24  1  0  0  0  0
 21 23  2  0  0  0  0
 22 23  1  0  0  0  0
 24 25  2  0  0  0  0
 24 26  1  0  0  0  0
 25 28  1  0  0  0  0
 26 29  2  0  0  0  0
 27 31  1  0  0  0  0
 28 30  2  0  0  0  0
 29 30  1  0  0  0  0
M  END
