915
 OpenBabel10141417483D

 11 13  0  0  0  0  0  0  0  0999 V2000
    0.9451   -0.0274   -0.0992 N   0  0  0  0  0  0  0  0  0  0  0  0
    2.4068   -0.0202   -0.0898 C   0  0  3  0  0  0  0  0  0  0  0  0
    4.4732    0.8583    1.0722 C   0  0  3  0  0  0  0  0  0  0  0  0
    4.4734    0.5475   -1.4302 C   0  0  3  0  0  0  0  0  0  0  0  0
    4.4738   -1.4641    0.0901 C   0  0  3  0  0  0  0  0  0  0  0  0
    2.9337    0.8556    1.0692 C   0  0  0  0  0  0  0  0  0  0  0  0
    2.9338    0.5455   -1.4267 C   0  0  0  0  0  0  0  0  0  0  0  0
    2.9341   -1.4606    0.0893 C   0  0  0  0  0  0  0  0  0  0  0  0
    4.9812    1.4175   -0.2677 C   0  0  0  0  0  0  0  0  0  0  0  0
    4.9816   -0.5832    1.2444 C   0  0  0  0  0  0  0  0  0  0  0  0
    4.9818   -0.8924   -1.2445 C   0  0  0  0  0  0  0  0  0  0  0  0
  1  2  1  0  0  0  0
  2  6  1  0  0  0  0
  2  7  1  0  0  0  0
  2  8  1  0  0  0  0
  3  6  1  0  0  0  0
  3  9  1  0  0  0  0
  3 10  1  0  0  0  0
  4  7  1  0  0  0  0
  4  9  1  0  0  0  0
  4 11  1  0  0  0  0
  5  8  1  0  0  0  0
  5 10  1  0  0  0  0
  5 11  1  0  0  0  0
M  END
