
 OpenBabel10141417523D

 15 15  0  0  0  0  0  0  0  0999 V2000
    0.2220    0.5318   -1.3276 C   0  0  0  0  0  0  0  0  0  0  0  0
   -1.1297    0.4446   -0.6413 C   0  0  0  0  0  0  0  0  0  0  0  0
    0.3482    0.2664   -2.6982 C   0  0  0  0  0  0  0  0  0  0  0  0
    1.3777    0.8694   -0.6112 C   0  0  0  0  0  0  0  0  0  0  0  0
   -1.6853    1.7635   -0.0323 C   0  0  3  0  0  0  0  0  0  0  0  0
    1.5844    0.4021   -3.3385 C   0  0  0  0  0  0  0  0  0  0  0  0
    2.6011    1.0493   -1.2552 C   0  0  0  0  0  0  0  0  0  0  0  0
   -0.8448    2.2661    1.1424 C   0  0  0  0  0  0  0  0  0  0  0  0
   -1.7753    2.7558   -1.1295 N   0  0  0  0  0  0  0  0  0  0  0  0
    2.7043    0.8185   -2.6212 C   0  0  0  0  0  0  0  0  0  0  0  0
   -1.6995    4.0035   -0.8481 C   0  0  0  0  0  0  0  0  0  0  0  0
   -1.6955    5.1532   -1.8486 C   0  0  0  0  0  0  0  0  0  0  0  0
   -0.6608    6.4417   -1.1616 Cl  0  0  0  0  0  0  0  0  0  0  0  0
   -1.0473    4.6368   -3.4036 Cl  0  0  0  0  0  0  0  0  0  0  0  0
   -3.3642    5.7369   -1.9794 Cl  0  0  0  0  0  0  0  0  0  0  0  0
  1  2  1  0  0  0  0
  1  3  2  0  0  0  0
  1  4  1  0  0  0  0
  2  5  1  0  0  0  0
  3  6  1  0  0  0  0
  4  7  2  0  0  0  0
  5  8  1  0  0  0  0
  5  9  1  0  0  0  0
  6 10  2  0  0  0  0
  7 10  1  0  0  0  0
  9 11  2  0  0  0  0
 11 12  1  0  0  0  0
 12 13  1  0  0  0  0
 12 14  1  0  0  0  0
 12 15  1  0  0  0  0
M  END
