594
 OpenBabel10141417503D

 15 15  0  0  0  0  0  0  0  0999 V2000
    1.0039    0.0623   -0.1940 Cl  0  0  0  0  0  0  0  0  0  0  0  0
    6.5339    2.4888    0.4051 O   0  0  0  0  0  0  0  0  0  0  0  0
    4.7577   -1.2857   -0.0680 N   0  0  0  0  0  0  0  0  0  0  0  0
    3.3323    1.1725   -0.1952 N   0  0  0  0  0  0  0  0  0  0  0  0
    6.7940   -0.1980   -0.1782 N   0  0  0  0  0  0  0  0  0  0  0  0
    4.7484    3.4921   -0.6729 N   0  0  0  0  0  0  0  0  0  0  0  0
    2.7735   -2.4948   -0.0948 N   0  0  0  0  0  0  0  0  0  0  0  0
    5.9181    5.1031    0.6485 N   0  0  0  0  0  0  0  0  0  0  0  0
    4.3788    5.7450   -0.8092 N   0  0  0  0  0  0  0  0  0  0  0  0
    4.6956    1.1152   -0.1679 C   0  0  0  0  0  0  0  0  0  0  0  0
    5.4078   -0.0959   -0.1020 C   0  0  0  0  0  0  0  0  0  0  0  0
    3.4073   -1.2508   -0.0942 C   0  0  0  0  0  0  0  0  0  0  0  0
    2.7207   -0.0282   -0.1739 C   0  0  0  0  0  0  0  0  0  0  0  0
    5.4200    2.4245   -0.1204 C   0  0  0  0  0  0  0  0  0  0  0  0
    5.0297    4.6834   -0.2817 C   0  0  0  0  0  0  0  0  0  0  0  0
  1 13  1  0  0  0  0
  2 14  2  0  0  0  0
  3 11  1  0  0  0  0
  3 12  2  0  0  0  0
  4 10  1  0  0  0  0
  4 13  2  0  0  0  0
  5 11  1  0  0  0  0
  6 14  1  0  0  0  0
  6 15  2  0  0  0  0
  7 12  1  0  0  0  0
  8 15  1  0  0  0  0
  9 15  1  0  0  0  0
 10 11  2  0  0  0  0
 10 14  1  0  0  0  0
 12 13  1  0  0  0  0
M  END
