233
 OpenBabel10141417493D

 11 11  0  0  0  0  0  0  0  0999 V2000
    1.0247    0.0121   -0.1256 O   0  0  0  0  0  0  0  0  0  0  0  0
    1.1264   -2.5356   -0.2650 O   0  0  0  0  0  0  0  0  0  0  0  0
    3.1303   -3.5593   -0.3454 O   0  0  0  0  0  0  0  0  0  0  0  0
    5.1351    2.5186   -0.0349 N   0  0  0  0  0  0  0  0  0  0  0  0
    3.1092   -1.1785   -0.2374 C   0  0  0  0  0  0  0  0  0  0  0  0
    2.3974    0.0257   -0.1691 C   0  0  0  0  0  0  0  0  0  0  0  0
    4.4637    1.3028   -0.2011 C   0  0  0  0  0  0  0  0  0  0  0  0
    3.0685    1.2538   -0.1320 C   0  0  0  0  0  0  0  0  0  0  0  0
    4.5095   -1.1259   -0.2427 C   0  0  0  0  0  0  0  0  0  0  0  0
    5.1770    0.1028   -0.2011 C   0  0  0  0  0  0  0  0  0  0  0  0
    2.4757   -2.5299   -0.2860 C   0  0  0  0  0  0  0  0  0  0  0  0
  1  6  1  0  0  0  0
  2 11  1  0  0  0  0
  3 11  2  0  0  0  0
  4  7  1  0  0  0  0
  5  6  2  0  0  0  0
  5  9  1  0  0  0  0
  5 11  1  0  0  0  0
  6  8  1  0  0  0  0
  7  8  2  0  0  0  0
  7 10  1  0  0  0  0
  9 10  2  0  0  0  0
M  END
