357
 OpenBabel10141417503D

 17 18  0  0  1  0  0  0  0  0999 V2000
    1.4218   -0.4489   -1.0569 O   0  0  0  0  0  0  0  0  0  0  0  0
    4.3211   -2.1432    1.9336 O   0  0  0  0  0  0  0  0  0  0  0  0
    2.9126   -1.1917    0.4444 N   0  0  0  0  0  0  0  0  0  0  0  0
   -0.6209    5.6562   -0.5214 N   0  0  0  0  0  0  0  0  0  0  0  0
    3.0612    1.1969   -0.2605 C   0  0  3  0  0  0  0  0  0  0  0  0
    3.6983    1.3531    1.1478 C   0  0  0  0  0  0  0  0  0  0  0  0
    4.1778    1.1773   -1.3534 C   0  0  0  0  0  0  0  0  0  0  0  0
    2.0673    2.3736   -0.3932 C   0  0  0  0  0  0  0  0  0  0  0  0
    4.6153    0.1997    1.5261 C   0  0  0  0  0  0  0  0  0  0  0  0
    2.3716   -0.1845   -0.3198 C   0  0  0  0  0  0  0  0  0  0  0  0
    3.9416   -1.1345    1.3466 C   0  0  0  0  0  0  0  0  0  0  0  0
    3.6796    1.0584   -2.7933 C   0  0  0  0  0  0  0  0  0  0  0  0
    0.7543    2.2711    0.1007 C   0  0  0  0  0  0  0  0  0  0  0  0
    2.4599    3.6241   -0.8993 C   0  0  0  0  0  0  0  0  0  0  0  0
   -0.1394    3.3468    0.0299 C   0  0  0  0  0  0  0  0  0  0  0  0
    1.5599    4.6964   -0.9700 C   0  0  0  0  0  0  0  0  0  0  0  0
    0.2363    4.5501   -0.5611 C   0  0  0  0  0  0  0  0  0  0  0  0
  1 10  2  0  0  0  0
  2 11  2  0  0  0  0
  3 10  1  0  0  0  0
  3 11  1  0  0  0  0
  4 17  1  0  0  0  0
  5  6  1  0  0  0  0
  5  7  1  0  0  0  0
  5  8  1  0  0  0  0
  5 10  1  0  0  0  0
  6  9  1  0  0  0  0
  7 12  1  0  0  0  0
  8 13  2  0  0  0  0
  8 14  1  0  0  0  0
  9 11  1  0  0  0  0
 13 15  1  0  0  0  0
 14 16  2  0  0  0  0
 15 17  2  0  0  0  0
 16 17  1  0  0  0  0
M  END
