1424
 OpenBabel10141417483D

 17 18  0  0  1  0  0  0  0  0999 V2000
    1.0709   -0.4195   -0.4024 O   0  0  0  0  0  0  0  0  0  0  0  0
    4.2341    0.9312    0.1768 N   0  0  0  0  0  0  0  0  0  0  0  0
    2.8411    1.0984   -0.0025 N   0  0  0  0  0  0  0  0  0  0  0  0
    3.1191   -2.5808   -0.1073 N   0  0  0  0  0  0  0  0  0  0  0  0
    4.4471   -0.4556    0.2454 C   0  0  0  0  0  0  0  0  0  0  0  0
    3.3501   -1.2031   -0.0120 C   0  0  0  0  0  0  0  0  0  0  0  0
    2.2502   -0.1549   -0.1974 C   0  0  0  0  0  0  0  0  0  0  0  0
    2.1806    2.2794    0.4351 C   0  0  0  0  0  0  0  0  0  0  0  0
    5.8246   -0.9424    0.5690 C   0  0  0  0  0  0  0  0  0  0  0  0
    5.0330    1.6830   -0.8115 C   0  0  0  0  0  0  0  0  0  0  0  0
    1.7732   -3.1073   -0.3571 C   0  0  0  0  0  0  0  0  0  0  0  0
    4.1163   -3.5840    0.2430 C   0  0  0  0  0  0  0  0  0  0  0  0
    0.8074    2.4661    0.2255 C   0  0  0  0  0  0  0  0  0  0  0  0
    2.8799    3.2912    1.1140 C   0  0  0  0  0  0  0  0  0  0  0  0
    0.1566    3.6213    0.6744 C   0  0  0  0  0  0  0  0  0  0  0  0
    2.2332    4.4485    1.5605 C   0  0  0  0  0  0  0  0  0  0  0  0
    0.8698    4.6128    1.3405 C   0  0  0  0  0  0  0  0  0  0  0  0
  1  7  2  0  0  0  0
  2  3  1  0  0  0  0
  2  5  1  0  0  0  0
  2 10  1  0  0  0  0
  3  7  1  0  0  0  0
  3  8  1  0  0  0  0
  4  6  1  0  0  0  0
  4 11  1  0  0  0  0
  4 12  1  0  0  0  0
  5  6  2  0  0  0  0
  5  9  1  0  0  0  0
  6  7  1  0  0  0  0
  8 13  2  0  0  0  0
  8 14  1  0  0  0  0
 13 15  1  0  0  0  0
 14 16  2  0  0  0  0
 15 17  2  0  0  0  0
 16 17  1  0  0  0  0
M  END
