855
 OpenBabel10141417493D

  9  8  0  0  0  0  0  0  0  0999 V2000
    0.9514   -0.0881   -0.1639 O   0  0  0  0  0  0  0  0  0  0  0  0
    0.1991    0.7870    1.9891 O   0  0  0  0  0  0  0  0  0  0  0  0
    1.2210    0.7393    3.9859 O   0  0  0  0  0  0  0  0  0  0  0  0
    3.1368   -0.6977   -2.1721 N   0  0  0  0  0  0  0  0  0  0  0  0
    2.9106   -0.4273    1.1957 C   0  0  0  0  0  0  0  0  0  0  0  0
    1.9582   -0.8376    2.3165 C   0  0  0  0  0  0  0  0  0  0  0  0
    2.1824   -0.0145   -0.0698 C   0  0  0  0  0  0  0  0  0  0  0  0
    3.0076    0.4335   -1.2568 C   0  0  0  0  0  0  0  0  0  0  0  0
    1.1123    0.2968    2.8427 C   0  0  0  0  0  0  0  0  0  0  0  0
  1  7  2  0  0  0  0
  2  9  1  0  0  0  0
  3  9  2  0  0  0  0
  4  8  1  0  0  0  0
  5  6  1  0  0  0  0
  5  7  1  0  0  0  0
  6  9  1  0  0  0  0
  7  8  1  0  0  0  0
M  END
