1223
 OpenBabel10141417523D

 30 31  0  0  0  0  0  0  0  0999 V2000
    0.8774    0.6640    2.7547 O   0  0  0  0  0  0  0  0  0  0  0  0
    0.6465   -0.1619   -3.2041 O   0  0  0  0  0  0  0  0  0  0  0  0
    4.5290    3.4968    2.6171 O   0  0  0  0  0  0  0  0  0  0  0  0
    5.0297    1.8177   -0.8203 O   0  0  0  0  0  0  0  0  0  0  0  0
    4.9279    1.2286    2.6161 N   0  0  0  0  0  0  0  0  0  0  0  0
    5.0116   -0.8593   -1.3911 N   0  0  0  0  0  0  0  0  0  0  0  0
    2.6962    2.1017    2.5639 N   0  0  0  0  0  0  0  0  0  0  0  0
    2.7039    0.9540   -1.9320 N   0  0  0  0  0  0  0  0  0  0  0  0
    2.8459   -1.5577    2.7845 N   0  0  0  0  0  0  0  0  0  0  0  0
    2.2823   -3.2341   -3.0863 N   0  0  0  0  0  0  0  0  0  0  0  0
    5.0464   -1.2116    2.7489 N   0  0  0  0  0  0  0  0  0  0  0  0
    4.4235   -3.4910   -2.2095 N   0  0  0  0  0  0  0  0  0  0  0  0
    1.5714   -0.9650   -0.4261 N   0  0  0  0  0  0  0  0  0  0  0  0
    5.2621    0.2305   -3.5048 N   0  0  0  0  0  0  0  0  0  0  0  0
    4.3767   -0.0259    2.7026 C   0  0  0  0  0  0  0  0  0  0  0  0
    4.0999   -2.1869   -2.1205 C   0  0  0  0  0  0  0  0  0  0  0  0
    3.0303   -0.2079    2.7370 C   0  0  0  0  0  0  0  0  0  0  0  0
    2.5840   -1.9697   -2.6742 C   0  0  0  0  0  0  0  0  0  0  0  0
    2.0886    0.8494    2.6852 C   0  0  0  0  0  0  0  0  0  0  0  0
    1.7520   -0.3488   -2.7043 C   0  0  0  0  0  0  0  0  0  0  0  0
    4.0865    2.3442    2.5934 C   0  0  0  0  0  0  0  0  0  0  0  0
    4.4059    0.8724   -1.2855 C   0  0  0  0  0  0  0  0  0  0  0  0
    6.3656    1.4095    2.6162 C   0  0  0  0  0  0  0  0  0  0  0  0
    6.2650   -1.1349   -0.7216 C   0  0  0  0  0  0  0  0  0  0  0  0
    1.8374    3.2670    2.5143 C   0  0  0  0  0  0  0  0  0  0  0  0
    2.1137    2.2689   -1.9389 C   0  0  0  0  0  0  0  0  0  0  0  0
    4.0946   -2.1239    2.7928 C   0  0  0  0  0  0  0  0  0  0  0  0
    3.3669   -4.0574   -2.7824 C   0  0  0  0  0  0  0  0  0  0  0  0
    3.0244   -0.7265   -1.0024 C   0  0  0  0  0  0  0  0  0  0  0  0
    3.8582   -0.2553   -2.9740 C   0  0  0  0  0  0  0  0  0  0  0  0
  1 19  2  0  0  0  0
  2 20  2  0  0  0  0
  3 21  2  0  0  0  0
  4 22  2  0  0  0  0
  5 15  1  0  0  0  0
  5 21  1  0  0  0  0
  5 23  1  0  0  0  0
  6 16  1  0  0  0  0
  6 22  1  0  0  0  0
  6 24  1  0  0  0  0
  7 19  1  0  0  0  0
  7 21  1  0  0  0  0
  7 25  1  0  0  0  0
  8 20  1  0  0  0  0
  8 22  1  0  0  0  0
  8 26  1  0  0  0  0
  9 17  1  0  0  0  0
  9 27  1  0  0  0  0
 10 18  1  0  0  0  0
 10 28  1  0  0  0  0
 11 15  1  0  0  0  0
 11 27  2  0  0  0  0
 12 16  1  0  0  0  0
 12 28  2  0  0  0  0
 13 29  1  0  0  0  0
 14 30  1  0  0  0  0
 15 17  2  0  0  0  0
 16 18  2  0  0  0  0
 17 19  1  0  0  0  0
 18 20  1  0  0  0  0
 29 30  1  0  0  0  0
M  END
