1025
 OpenBabel10141417513D

 22 24  0  0  0  0  0  0  0  0999 V2000
    0.1746    1.4239    0.0627 O   0  0  0  0  0  0  0  0  0  0  0  0
    0.2001   -2.6542    0.1092 O   0  0  0  0  0  0  0  0  0  0  0  0
    5.1577   -2.3268    0.7701 O   0  0  0  0  0  0  0  0  0  0  0  0
    6.1975   -0.5616   -0.1274 O   0  0  0  0  0  0  0  0  0  0  0  0
    2.4609    1.5147    0.1563 N   0  0  0  0  0  0  0  0  0  0  0  0
    4.7420    1.7974    0.3536 N   0  0  0  0  0  0  0  0  0  0  0  0
   -4.8497   -1.2960   -0.0178 C   0  0  0  0  0  0  0  0  0  0  0  0
   -3.5063   -0.5826   -0.0081 C   0  0  0  0  0  0  0  0  0  0  0  0
   -1.0750   -0.6714    0.0555 C   0  0  0  0  0  0  0  0  0  0  0  0
   -2.3146   -1.3248    0.0300 C   0  0  0  0  0  0  0  0  0  0  0  0
   -1.0012    0.7173    0.0388 C   0  0  0  0  0  0  0  0  0  0  0  0
   -3.4183    0.8196   -0.0303 C   0  0  0  0  0  0  0  0  0  0  0  0
    1.4254   -0.6544    0.1532 C   0  0  0  0  0  0  0  0  0  0  0  0
    0.1827   -1.4309    0.1067 C   0  0  0  0  0  0  0  0  0  0  0  0
   -5.7086   -0.9100    1.1907 C   0  0  0  0  0  0  0  0  0  0  0  0
   -5.6145   -1.0519   -1.3217 C   0  0  0  0  0  0  0  0  0  0  0  0
   -2.1769    1.4639   -0.0055 C   0  0  0  0  0  0  0  0  0  0  0  0
    1.3587    0.7270    0.1243 C   0  0  0  0  0  0  0  0  0  0  0  0
    2.6731   -1.2710    0.2177 C   0  0  0  0  0  0  0  0  0  0  0  0
    3.8209   -0.4719    0.2540 C   0  0  0  0  0  0  0  0  0  0  0  0
    3.6729    0.9188    0.2166 C   0  0  0  0  0  0  0  0  0  0  0  0
    5.1674   -1.0791    0.2684 C   0  0  0  0  0  0  0  0  0  0  0  0
  1 11  1  0  0  0  0
  1 18  1  0  0  0  0
  2 14  2  0  0  0  0
  3 22  1  0  0  0  0
  4 22  2  0  0  0  0
  5 18  2  0  0  0  0
  5 21  1  0  0  0  0
  6 21  1  0  0  0  0
  7  8  1  0  0  0  0
  7 15  1  0  0  0  0
  7 16  1  0  0  0  0
  8 10  2  0  0  0  0
  8 12  1  0  0  0  0
  9 10  1  0  0  0  0
  9 11  2  0  0  0  0
  9 14  1  0  0  0  0
 11 17  1  0  0  0  0
 12 17  2  0  0  0  0
 13 14  1  0  0  0  0
 13 18  1  0  0  0  0
 13 19  2  0  0  0  0
 19 20  1  0  0  0  0
 20 21  2  0  0  0  0
 20 22  1  0  0  0  0
M  END
