1351
 OpenBabel10141417483D

 16 16  0  0  0  0  0  0  0  0999 V2000
    1.2389   -0.3737   -0.8182 O   0  0  0  0  0  0  0  0  0  0  0  0
    4.2384    2.1005    1.8767 O   0  0  0  0  0  0  0  0  0  0  0  0
    3.5933   -2.2902    2.4955 O   0  0  0  0  0  0  0  0  0  0  0  0
    2.5456   -1.3327    0.7402 N   0  0  0  0  0  0  0  0  0  0  0  0
    4.0639   -0.1362    2.0135 N   0  0  0  0  0  0  0  0  0  0  0  0
    3.0188    0.9918    0.0982 C   0  0  0  0  0  0  0  0  0  0  0  0
    4.0396    1.0224   -1.0818 C   0  0  0  0  0  0  0  0  0  0  0  0
    5.0361   -0.1470   -1.1484 C   0  0  0  0  0  0  0  0  0  0  0  0
    2.1133    2.2479   -0.0373 C   0  0  0  0  0  0  0  0  0  0  0  0
    5.9390   -0.1142   -2.3977 C   0  0  0  0  0  0  0  0  0  0  0  0
    2.1736   -0.2643   -0.0271 C   0  0  0  0  0  0  0  0  0  0  0  0
    3.7968    1.0569    1.4027 C   0  0  0  0  0  0  0  0  0  0  0  0
    1.0361    2.3735    1.0371 C   0  0  0  0  0  0  0  0  0  0  0  0
    6.8232    1.1321   -2.4507 C   0  0  0  0  0  0  0  0  0  0  0  0
    6.8137   -1.3705   -2.4316 C   0  0  0  0  0  0  0  0  0  0  0  0
    3.4231   -1.3107    1.7776 C   0  0  0  0  0  0  0  0  0  0  0  0
  1 11  2  0  0  0  0
  2 12  2  0  0  0  0
  3 16  2  0  0  0  0
  4 11  1  0  0  0  0
  4 16  1  0  0  0  0
  5 12  1  0  0  0  0
  5 16  1  0  0  0  0
  6  7  1  0  0  0  0
  6  9  1  0  0  0  0
  6 11  1  0  0  0  0
  6 12  1  0  0  0  0
  7  8  1  0  0  0  0
  8 10  1  0  0  0  0
  9 13  1  0  0  0  0
 10 14  1  0  0  0  0
 10 15  1  0  0  0  0
M  END
