543
 OpenBabel10141418363D

 22 25  0  0  0  0  0  0  0  0999 V2000
    0.8796   -0.9578    0.7246 Cl  0  0  0  0  0  0  0  0  0  0  0  0
    6.6017    0.0376   -0.1536 O   0  0  0  0  0  0  0  0  0  0  0  0
    3.9823    3.2432   -0.6144 N   0  0  0  0  0  0  0  0  0  0  0  0
    4.8024    4.8939   -2.9237 N   0  0  0  0  0  0  0  0  0  0  0  0
    5.9375    2.7916    0.5755 N   0  0  0  0  0  0  0  0  0  0  0  0
    3.5377    2.9154   -1.9888 C   0  0  0  0  0  0  0  0  0  0  0  0
    4.2397    4.6952   -0.4711 C   0  0  0  0  0  0  0  0  0  0  0  0
    4.5497    3.4416   -3.0325 C   0  0  0  0  0  0  0  0  0  0  0  0
    5.2386    5.1924   -1.5394 C   0  0  0  0  0  0  0  0  0  0  0  0
    4.8250    2.3461    0.0599 C   0  0  0  0  0  0  0  0  0  0  0  0
    4.3679    0.9254    0.1855 C   0  0  0  0  0  0  0  0  0  0  0  0
    5.2564   -0.1416    0.0466 C   0  0  0  0  0  0  0  0  0  0  0  0
    6.8610    1.9917    1.2631 C   0  0  0  0  0  0  0  0  0  0  0  0
    3.0080    0.6694    0.4097 C   0  0  0  0  0  0  0  0  0  0  0  0
    7.2161    0.6893    0.8906 C   0  0  0  0  0  0  0  0  0  0  0  0
    4.7895   -1.4588    0.0770 C   0  0  0  0  0  0  0  0  0  0  0  0
    2.5508   -0.6457    0.4615 C   0  0  0  0  0  0  0  0  0  0  0  0
    3.4334   -1.7113    0.2885 C   0  0  0  0  0  0  0  0  0  0  0  0
    7.5440    2.5776    2.3346 C   0  0  0  0  0  0  0  0  0  0  0  0
    8.2341   -0.0031    1.5550 C   0  0  0  0  0  0  0  0  0  0  0  0
    8.5467    1.8847    3.0197 C   0  0  0  0  0  0  0  0  0  0  0  0
    8.8946    0.5944    2.6265 C   0  0  0  0  0  0  0  0  0  0  0  0
  1 17  1  0  0  0  0
  2 12  1  0  0  0  0
  2 15  1  0  0  0  0
  3  6  1  0  0  0  0
  3  7  1  0  0  0  0
  3 10  1  0  0  0  0
  4  8  1  0  0  0  0
  4  9  1  0  0  0  0
  5 10  2  0  0  0  0
  5 13  1  0  0  0  0
  6  8  1  0  0  0  0
  7  9  1  0  0  0  0
 10 11  1  0  0  0  0
 11 12  2  0  0  0  0
 11 14  1  0  0  0  0
 12 16  1  0  0  0  0
 13 15  1  0  0  0  0
 13 19  2  0  0  0  0
 14 17  2  0  0  0  0
 15 20  2  0  0  0  0
 16 18  2  0  0  0  0
 17 18  1  0  0  0  0
 19 21  1  0  0  0  0
 20 22  1  0  0  0  0
 21 22  2  0  0  0  0
M  END
