1060
 OpenBabel10141417523D

 25 27  0  0  1  0  0  0  0  0999 V2000
    4.6789   -2.6081    7.9387 S   0  0  0  0  0  0  0  0  0  0  0  0
    4.7504   -5.9758    5.5026 O   0  0  0  0  0  0  0  0  0  0  0  0
    8.3712   -3.2464    6.2268 O   0  0  0  0  0  0  0  0  0  0  0  0
    8.8324   -4.1905    8.2169 O   0  0  0  0  0  0  0  0  0  0  0  0
    2.0655   -1.6051    4.7413 O   0  0  0  0  0  0  0  0  0  0  0  0
   -2.2824   -7.4219    4.1655 O   0  0  0  0  0  0  0  0  0  0  0  0
    5.9166   -4.0213    6.0772 N   0  0  0  0  0  0  0  0  0  0  0  0
    2.6387   -3.5596    5.7603 N   0  0  0  0  0  0  0  0  0  0  0  0
    0.3743   -2.5983    7.5088 N   0  0  0  0  0  0  0  0  0  0  0  0
    5.0819   -2.8037    6.1642 C   0  0  1  0  0  0  0  0  0  0  0  0
    5.6991   -4.0495    8.5077 C   0  0  0  0  0  0  0  0  0  0  0  0
    6.5810   -4.4803    7.3072 C   0  0  2  0  0  0  0  0  0  0  0  0
    4.0399   -3.5196    5.2654 C   0  0  1  0  0  0  0  0  0  0  0  0
    4.9035   -4.7682    5.5382 C   0  0  0  0  0  0  0  0  0  0  0  0
    6.4580   -3.6170    9.7675 C   0  0  0  0  0  0  0  0  0  0  0  0
    4.7194   -5.1695    8.9040 C   0  0  0  0  0  0  0  0  0  0  0  0
    8.0274   -3.9608    7.3265 C   0  0  0  0  0  0  0  0  0  0  0  0
    1.7335   -2.5696    5.4299 C   0  0  0  0  0  0  0  0  0  0  0  0
    0.3129   -2.7166    6.0359 C   0  0  1  0  0  0  0  0  0  0  0  0
   -0.3893   -3.9859    5.5771 C   0  0  0  0  0  0  0  0  0  0  0  0
   -0.2913   -5.1973    6.2853 C   0  0  0  0  0  0  0  0  0  0  0  0
   -1.1475   -3.9697    4.3923 C   0  0  0  0  0  0  0  0  0  0  0  0
   -0.9220   -6.3551    5.8258 C   0  0  0  0  0  0  0  0  0  0  0  0
   -1.7846   -5.1272    3.9357 C   0  0  0  0  0  0  0  0  0  0  0  0
   -1.6606   -6.3107    4.6511 C   0  0  0  0  0  0  0  0  0  0  0  0
  1 11  1  0  0  0  0
  2 14  2  0  0  0  0
  3 17  1  0  0  0  0
  4 17  2  0  0  0  0
  5 18  2  0  0  0  0
  6 25  1  0  0  0  0
  7 10  1  0  0  0  0
  7 12  1  0  0  0  0
  7 14  1  0  0  0  0
  8 18  1  0  0  0  0
 10  1  1  1  0  0  0
 10 13  1  0  0  0  0
 11 12  1  0  0  0  0
 11 15  1  0  0  0  0
 11 16  1  0  0  0  0
 12 17  1  1  0  0  0
 13 14  1  0  0  0  0
 13  8  1  1  0  0  0
 19 20  1  1  0  0  0
 19 18  1  0  0  0  0
 19  9  1  0  0  0  0
 20 21  2  0  0  0  0
 20 22  1  0  0  0  0
 21 23  1  0  0  0  0
 22 24  2  0  0  0  0
 23 25  2  0  0  0  0
 24 25  1  0  0  0  0
M  END
