
 OpenBabel10141417493D

 65 67  0  0  1  0  0  0  0  0999 V2000
   -3.3710    1.9045    0.0440 C   0  0  1  0  0  0  0  0  0  0  0  0
   -3.6873    2.3238    1.4875 C   0  0  1  0  0  0  0  0  0  0  0  0
   -4.0339    2.7649   -0.8929 O   0  0  0  0  0  0  0  0  0  0  0  0
   -1.8471    1.8486   -0.2135 C   0  0  0  0  0  0  0  0  0  0  0  0
   -5.1953    2.3452    1.6916 C   0  0  2  0  0  0  0  0  0  0  0  0
   -2.8899    3.5392    1.9414 C   0  0  0  0  0  0  0  0  0  0  0  0
   -5.4727    2.7430   -0.8145 C   0  0  1  0  0  0  0  0  0  0  0  0
   -1.3406    0.9346   -1.3532 C   0  0  1  0  0  0  0  0  0  0  0  0
   -5.9628    3.0709    0.5972 C   0  0  0  0  0  0  0  0  0  0  0  0
   -5.5363    2.9144    2.9513 O   0  0  0  0  0  0  0  0  0  0  0  0
   -3.4162    4.7577    1.7495 O   0  0  0  0  0  0  0  0  0  0  0  0
   -1.7687    3.4217    2.4267 O   0  0  0  0  0  0  0  0  0  0  0  0
   -5.9895    3.7620   -1.8650 C   0  0  0  0  0  0  0  0  0  0  0  0
   -5.9380    1.4356   -1.1356 O   0  0  0  0  0  0  0  0  0  0  0  0
    0.0491    0.6630   -1.0324 O   0  0  0  0  0  0  0  0  0  0  0  0
   -2.1025   -0.3637   -1.4028 C   0  0  0  0  0  0  0  0  0  0  0  0
   -7.5080    4.0093   -1.8604 C   0  0  2  0  0  0  0  0  0  0  0  0
    0.7644   -0.1732   -1.9618 C   0  0  1  0  0  0  0  0  0  0  0  0
   -2.6762   -0.9225   -2.4801 C   0  0  0  0  0  0  0  0  0  0  0  0
   -7.9526    4.8411   -3.0790 C   0  0  0  0  0  0  0  0  0  0  0  0
   -7.8376    4.7305   -0.6753 O   0  0  0  0  0  0  0  0  0  0  0  0
    2.2211   -0.2918   -1.4337 C   0  0  2  0  0  0  0  0  0  0  0  0
    0.1827   -1.4707   -1.9969 O   0  0  0  0  0  0  0  0  0  0  0  0
   -2.7613   -0.3213   -3.7871 C   0  0  0  0  0  0  0  0  0  0  0  0
   -9.4830    5.0150   -3.1494 C   0  0  2  0  0  0  0  0  0  0  0  0
    3.0133   -1.3655   -2.2095 C   0  0  2  0  0  0  0  0  0  0  0  0
    2.2162   -0.6527   -0.0337 O   0  0  0  0  0  0  0  0  0  0  0  0
    0.8278   -2.3819   -2.8752 C   0  0  1  0  0  0  0  0  0  0  0  0
   -3.6124    0.6846   -4.0073 C   0  0  0  0  0  0  0  0  0  0  0  0
   -9.9174    5.9530   -4.2979 C   0  0  1  0  0  0  0  0  0  0  0  0
   -9.9511    5.5752   -1.9127 O   0  0  0  0  0  0  0  0  0  0  0  0
    2.2156   -2.6844   -2.3174 C   0  0  1  0  0  0  0  0  0  0  0  0
    4.3283   -1.6732   -1.5881 N   0  0  0  0  0  0  0  0  0  0  0  0
   -0.0560   -3.6211   -2.9529 C   0  0  0  0  0  0  0  0  0  0  0  0
   -3.8421    1.3287   -5.2731 C   0  0  0  0  0  0  0  0  0  0  0  0
  -11.4402    5.9152   -4.4964 C   0  0  0  0  0  0  0  0  0  0  0  0
   -9.5156    7.2809   -3.9413 O   0  0  0  0  0  0  0  0  0  0  0  0
    2.9240   -3.5938   -3.1611 O   0  0  0  0  0  0  0  0  0  0  0  0
   -5.0154    1.9316   -5.5025 C   0  0  0  0  0  0  0  0  0  0  0  0
  -11.9043    6.8270   -5.6395 C   0  0  0  0  0  0  0  0  0  0  0  0
   -5.3535    2.6596   -6.6975 C   0  0  0  0  0  0  0  0  0  0  0  0
  -13.2766    6.4275   -6.2000 C   0  0  2  0  0  0  0  0  0  0  0  0
   -6.6282    2.9724   -6.9664 C   0  0  0  0  0  0  0  0  0  0  0  0
  -13.1846    5.1574   -7.0676 C   0  0  0  0  0  0  0  0  0  0  0  0
  -13.7031    7.5118   -7.0273 O   0  0  0  0  0  0  0  0  0  0  0  0
   -7.0416    3.7503   -8.1064 C   0  0  0  0  0  0  0  0  0  0  0  0
  -14.3681    4.1897   -6.9125 C   0  0  2  0  0  0  0  0  0  0  0  0
   -8.3189    3.7737   -8.5097 C   0  0  0  0  0  0  0  0  0  0  0  0
  -15.6934    4.7131   -7.4574 C   0  0  0  0  0  0  0  0  0  0  0  0
  -14.5358    3.8672   -5.5312 O   0  0  0  0  0  0  0  0  0  0  0  0
   -8.7829    4.5689   -9.6195 C   0  0  0  0  0  0  0  0  0  0  0  0
  -15.6493    4.7087   -8.9603 C   0  0  0  0  0  0  0  0  0  0  0  0
   -9.9696    4.3475  -10.2004 C   0  0  0  0  0  0  0  0  0  0  0  0
  -15.8641    5.9609   -9.4585 O   0  0  0  0  0  0  0  0  0  0  0  0
  -15.3817    3.7195   -9.6267 O   0  0  0  0  0  0  0  0  0  0  0  0
  -10.4858    5.1631  -11.2731 C   0  0  0  0  0  0  0  0  0  0  0  0
  -15.6703    6.0843  -10.8907 C   0  0  2  0  0  0  0  0  0  0  0  0
  -11.5853    4.8174  -11.9597 C   0  0  0  0  0  0  0  0  0  0  0  0
  -14.1429    6.1677  -11.1863 C   0  0  1  0  0  0  0  0  0  0  0  0
  -16.4642    7.3000  -11.3581 C   0  0  0  0  0  0  0  0  0  0  0  0
  -12.3019    5.6291  -13.0250 C   0  0  1  0  0  0  0  0  0  0  0  0
  -13.8085    5.8492  -12.6691 C   0  0  1  0  0  0  0  0  0  0  0  0
  -13.5425    7.4932  -10.7076 C   0  0  0  0  0  0  0  0  0  0  0  0
  -11.6102    6.9387  -13.4217 C   0  0  0  0  0  0  0  0  0  0  0  0
  -14.5098    4.6534  -13.0518 O   0  0  0  0  0  0  0  0  0  0  0  0
  1  2  1  0  0  0  0
  1  3  1  6  0  0  0
  1  4  1  0  0  0  0
  2  5  1  0  0  0  0
  2  6  1  1  0  0  0
  3  7  1  0  0  0  0
  4  8  1  0  0  0  0
  5  9  1  0  0  0  0
  5 10  1  1  0  0  0
  6 11  1  0  0  0  0
  6 12  2  0  0  0  0
  7 13  1  0  0  0  0
  7 14  1  6  0  0  0
  7  9  1  0  0  0  0
  8 15  1  1  0  0  0
  8 16  1  0  0  0  0
 13 17  1  0  0  0  0
 16 19  2  0  0  0  0
 17 20  1  0  0  0  0
 17 21  1  1  0  0  0
 18 22  1  0  0  0  0
 18 23  1  0  0  0  0
 18 15  1  1  0  0  0
 19 24  1  0  0  0  0
 20 25  1  0  0  0  0
 22 26  1  0  0  0  0
 22 27  1  1  0  0  0
 23 28  1  0  0  0  0
 24 29  2  0  0  0  0
 25 30  1  0  0  0  0
 25 31  1  1  0  0  0
 26 32  1  0  0  0  0
 26 33  1  1  0  0  0
 28 34  1  1  0  0  0
 28 32  1  0  0  0  0
 29 35  1  0  0  0  0
 30 36  1  0  0  0  0
 30 37  1  1  0  0  0
 32 38  1  6  0  0  0
 35 39  2  0  0  0  0
 36 40  1  0  0  0  0
 39 41  1  0  0  0  0
 40 42  1  0  0  0  0
 41 43  2  0  0  0  0
 42 44  1  0  0  0  0
 42 45  1  6  0  0  0
 43 46  1  0  0  0  0
 44 47  1  0  0  0  0
 46 48  2  0  0  0  0
 47 49  1  0  0  0  0
 47 50  1  1  0  0  0
 48 51  1  0  0  0  0
 49 52  1  0  0  0  0
 51 53  2  0  0  0  0
 52 54  1  0  0  0  0
 52 55  2  0  0  0  0
 53 56  1  0  0  0  0
 54 57  1  0  0  0  0
 56 58  2  0  0  0  0
 57 59  1  0  0  0  0
 57 60  1  1  0  0  0
 58 61  1  0  0  0  0
 59 62  1  0  0  0  0
 59 63  1  6  0  0  0
 61 62  1  0  0  0  0
 61 64  1  1  0  0  0
 62 65  1  1  0  0  0
M  END
