415
 OpenBabel10141417493D

 24 26  0  0  1  0  0  0  0  0999 V2000
    4.3829   -1.7260    6.8012 S   0  0  0  0  0  0  0  0  0  0  0  0
    3.9429   -5.5368    5.0944 O   0  0  0  0  0  0  0  0  0  0  0  0
    7.9719   -3.4530    6.0843 O   0  0  0  0  0  0  0  0  0  0  0  0
    7.9258   -4.0442    8.2240 O   0  0  0  0  0  0  0  0  0  0  0  0
    2.7921   -0.9131    3.0174 O   0  0  0  0  0  0  0  0  0  0  0  0
    5.4448   -3.8154    5.6029 N   0  0  0  0  0  0  0  0  0  0  0  0
    2.5699   -2.7069    4.4102 N   0  0  0  0  0  0  0  0  0  0  0  0
    0.5869   -0.8492    5.5513 N   0  0  0  0  0  0  0  0  0  0  0  0
    5.0198   -2.4571    5.2411 C   0  0  1  0  0  0  0  0  0  0  0  0
    4.8868   -3.1654    7.8653 C   0  0  0  0  0  0  0  0  0  0  0  0
    5.7972   -4.0695    6.9937 C   0  0  2  0  0  0  0  0  0  0  0  0
    3.9942   -3.1064    4.2715 C   0  0  1  0  0  0  0  0  0  0  0  0
    4.4083   -4.4190    4.9709 C   0  0  0  0  0  0  0  0  0  0  0  0
    5.5317   -2.6125    9.1428 C   0  0  0  0  0  0  0  0  0  0  0  0
    3.5944   -3.9015    8.2654 C   0  0  0  0  0  0  0  0  0  0  0  0
    7.3060   -3.8563    7.1876 C   0  0  0  0  0  0  0  0  0  0  0  0
    2.0824   -1.5885    3.7598 C   0  0  0  0  0  0  0  0  0  0  0  0
    0.6234   -1.1988    4.1106 C   0  0  1  0  0  0  0  0  0  0  0  0
   -0.4206   -2.2453    3.7370 C   0  0  0  0  0  0  0  0  0  0  0  0
   -1.6404   -2.3192    4.4354 C   0  0  0  0  0  0  0  0  0  0  0  0
   -0.2538   -3.0863    2.6229 C   0  0  0  0  0  0  0  0  0  0  0  0
   -2.6317   -3.2329    4.0699 C   0  0  0  0  0  0  0  0  0  0  0  0
   -1.2454   -4.0035    2.2591 C   0  0  0  0  0  0  0  0  0  0  0  0
   -2.4306   -4.0806    2.9858 C   0  0  0  0  0  0  0  0  0  0  0  0
  1 10  1  0  0  0  0
  2 13  2  0  0  0  0
  3 16  1  0  0  0  0
  4 16  2  0  0  0  0
  5 17  2  0  0  0  0
  6  9  1  0  0  0  0
  6 11  1  0  0  0  0
  6 13  1  0  0  0  0
  7 17  1  0  0  0  0
  9  1  1  1  0  0  0
  9 12  1  0  0  0  0
 10 11  1  0  0  0  0
 10 14  1  0  0  0  0
 10 15  1  0  0  0  0
 11 16  1  6  0  0  0
 12 13  1  0  0  0  0
 12  7  1  1  0  0  0
 18 19  1  1  0  0  0
 18 17  1  0  0  0  0
 18  8  1  0  0  0  0
 19 20  2  0  0  0  0
 19 21  1  0  0  0  0
 20 22  1  0  0  0  0
 21 23  2  0  0  0  0
 22 24  2  0  0  0  0
 23 24  1  0  0  0  0
M  END
