276
 OpenBabel10141417483D

 28 31  0  0  0  0  0  0  0  0999 V2000
    3.3026   -1.2559    5.4910 S   0  0  0  0  0  0  0  0  0  0  0  0
   -1.7434   -1.2923    2.8190 O   0  0  0  0  0  0  0  0  0  0  0  0
    4.3200   -2.2355    5.0487 O   0  0  0  0  0  0  0  0  0  0  0  0
    2.1962   -1.6453    6.2709 O   0  0  0  0  0  0  0  0  0  0  0  0
   -2.5709    1.5595    3.3743 N   0  0  0  0  0  0  0  0  0  0  0  0
   -5.1621    4.8701    4.2960 N   0  0  0  0  0  0  0  0  0  0  0  0
    2.7976   -0.4983    4.0690 N   0  0  0  0  0  0  0  0  0  0  0  0
   -3.4203    2.7104    3.7187 C   0  0  0  0  0  0  0  0  0  0  0  0
   -2.9398    3.9341    4.3184 C   0  0  0  0  0  0  0  0  0  0  0  0
   -4.8974    2.6014    3.4930 C   0  0  0  0  0  0  0  0  0  0  0  0
   -3.8542    4.9952    4.4655 C   0  0  0  0  0  0  0  0  0  0  0  0
   -5.6742    3.7225    3.8829 C   0  0  0  0  0  0  0  0  0  0  0  0
   -1.2119    1.0652    3.4360 C   0  0  0  0  0  0  0  0  0  0  0  0
   -1.6578    4.2267    4.8333 C   0  0  0  0  0  0  0  0  0  0  0  0
   -5.6982    1.5320    2.9430 C   0  0  0  0  0  0  0  0  0  0  0  0
   -0.8881   -0.3186    3.2924 C   0  0  0  0  0  0  0  0  0  0  0  0
    1.4413   -0.0187    3.9873 C   0  0  0  0  0  0  0  0  0  0  0  0
   -0.0867    1.8446    3.7343 C   0  0  0  0  0  0  0  0  0  0  0  0
   -3.4361    6.2617    4.8606 C   0  0  0  0  0  0  0  0  0  0  0  0
   -7.0654    3.7324    3.8457 C   0  0  0  0  0  0  0  0  0  0  0  0
    0.4032   -0.8484    3.5918 C   0  0  0  0  0  0  0  0  0  0  0  0
    1.1887    1.3352    4.0834 C   0  0  0  0  0  0  0  0  0  0  0  0
   -1.2080    5.5091    5.1576 C   0  0  0  0  0  0  0  0  0  0  0  0
   -7.1059    1.6186    2.7762 C   0  0  0  0  0  0  0  0  0  0  0  0
   -2.1092    6.5471    5.1575 C   0  0  0  0  0  0  0  0  0  0  0  0
   -7.7981    2.7077    3.2725 C   0  0  0  0  0  0  0  0  0  0  0  0
    4.1794    0.0636    6.3084 C   0  0  0  0  0  0  0  0  0  0  0  0
   -2.3092   -0.9749    1.5503 C   0  0  0  0  0  0  0  0  0  0  0  0
  1  3  2  0  0  0  0
  1  4  2  0  0  0  0
  1  7  1  0  0  0  0
  1 27  1  0  0  0  0
  2 16  1  0  0  0  0
  2 28  1  0  0  0  0
  5  8  1  0  0  0  0
  5 13  1  0  0  0  0
  6 11  2  0  0  0  0
  6 12  1  0  0  0  0
  7 17  1  0  0  0  0
  8  9  2  0  0  0  0
  8 10  1  0  0  0  0
  9 11  1  0  0  0  0
  9 14  1  0  0  0  0
 10 12  1  0  0  0  0
 10 15  2  0  0  0  0
 11 19  1  0  0  0  0
 12 20  2  0  0  0  0
 13 16  2  0  0  0  0
 13 18  1  0  0  0  0
 14 23  2  0  0  0  0
 15 24  1  0  0  0  0
 16 21  1  0  0  0  0
 17 21  2  0  0  0  0
 17 22  1  0  0  0  0
 18 22  2  0  0  0  0
 19 25  2  0  0  0  0
 20 26  1  0  0  0  0
 23 25  1  0  0  0  0
 24 26  2  0  0  0  0
M  END
