
 OpenBabel10141417483D

  8  7  0  0  0  0  0  0  0  0999 V2000
    0.9551    0.0162   -0.1058 C   0  0  0  0  0  0  0  0  0  0  0  0
    0.3827   -0.9791   -1.1149 C   0  0  0  0  0  0  0  0  0  0  0  0
    3.0558    0.9991    0.8960 C   0  0  0  0  0  0  0  0  0  0  0  0
    2.4831    0.0170   -0.1235 C   0  0  0  0  0  0  0  0  0  0  0  0
    5.0052    1.8782    1.7202 N   0  0  0  0  0  0  0  0  0  0  0  0
    6.2379    1.8838    1.6771 O   0  0  0  0  0  0  0  0  0  0  0  0
    4.4779    0.9850    0.7901 O   0  0  0  0  0  0  0  0  0  0  0  0
   -1.1382   -0.9796   -1.0969 C   0  0  0  0  0  0  0  0  0  0  0  0
  2  1  1  0  0  0  0
  2  8  1  0  0  0  0
  3  7  1  0  0  0  0
  4  1  1  0  0  0  0
  4  3  1  0  0  0  0
  6  5  2  0  0  0  0
  7  5  1  0  0  0  0
M  END
