1217
 OpenBabel10141417503D

 22 23  0  0  0  0  0  0  0  0999 V2000
   -0.1176   -1.6974   -0.9014 N   0  0  0  0  0  0  0  0  0  0  0  0
    0.1477   -0.3751   -0.8184 N   0  0  0  0  0  0  0  0  0  0  0  0
   -6.6706    0.0357   -2.2141 N   0  0  0  0  0  0  0  0  0  0  0  0
   -4.1787   -6.5428   -2.2903 N   0  0  0  0  0  0  0  0  0  0  0  0
    0.8291   -1.2433   -2.8164 N   0  0  0  0  0  0  0  0  0  0  0  0
   -5.2321   -0.0719    0.0100 C   0  0  0  0  0  0  0  0  0  0  0  0
   -4.9677   -5.2102   -0.1412 C   0  0  0  0  0  0  0  0  0  0  0  0
   -4.3773   -1.3569    0.0464 C   0  0  0  0  0  0  0  0  0  0  0  0
   -4.2726   -3.8338   -0.0375 C   0  0  0  0  0  0  0  0  0  0  0  0
   -4.9981   -2.6236   -0.0255 C   0  0  0  0  0  0  0  0  0  0  0  0
   -2.2129   -2.5058    0.1115 C   0  0  0  0  0  0  0  0  0  0  0  0
   -2.9786   -1.3289    0.1260 C   0  0  0  0  0  0  0  0  0  0  0  0
   -2.8679   -3.7454    0.0301 C   0  0  0  0  0  0  0  0  0  0  0  0
   -0.7049   -2.4261    0.2101 C   0  0  0  0  0  0  0  0  0  0  0  0
   -6.2042   -0.0570    1.2108 C   0  0  0  0  0  0  0  0  0  0  0  0
   -4.4010    1.2289    0.0799 C   0  0  0  0  0  0  0  0  0  0  0  0
   -4.6165   -6.0770    1.0913 C   0  0  0  0  0  0  0  0  0  0  0  0
   -6.5078   -5.1092   -0.2099 C   0  0  0  0  0  0  0  0  0  0  0  0
   -6.0287   -0.0163   -1.2475 C   0  0  0  0  0  0  0  0  0  0  0  0
   -4.5211   -5.9402   -1.3631 C   0  0  0  0  0  0  0  0  0  0  0  0
    0.3008   -2.2032   -2.0929 C   0  0  0  0  0  0  0  0  0  0  0  0
    0.7107   -0.1482   -2.0094 C   0  0  0  0  0  0  0  0  0  0  0  0
  1  2  1  0  0  0  0
  1 14  1  0  0  0  0
  1 21  1  0  0  0  0
  2 22  2  0  0  0  0
  3 19  3  0  0  0  0
  4 20  3  0  0  0  0
  5 21  2  0  0  0  0
  5 22  1  0  0  0  0
  6  8  1  0  0  0  0
  6 15  1  0  0  0  0
  6 16  1  0  0  0  0
  6 19  1  0  0  0  0
  7  9  1  0  0  0  0
  7 17  1  0  0  0  0
  7 18  1  0  0  0  0
  7 20  1  0  0  0  0
  8 10  2  0  0  0  0
  8 12  1  0  0  0  0
  9 10  1  0  0  0  0
  9 13  2  0  0  0  0
 11 12  2  0  0  0  0
 11 13  1  0  0  0  0
 11 14  1  0  0  0  0
M  END
