913
 OpenBabel10141417483D

 26 28  0  0  0  0  0  0  0  0999 V2000
    1.8764   -0.2811   -0.3227 O   0  0  0  0  0  0  0  0  0  0  0  0
    1.8677   -2.4680    0.4261 O   0  0  0  0  0  0  0  0  0  0  0  0
   -1.8557   -1.9567   -1.8932 N   0  0  0  0  0  0  0  0  0  0  0  0
   -9.3539    0.5499   -0.8665 N   0  0  0  0  0  0  0  0  0  0  0  0
   -0.2188   -1.1344    0.5034 C   0  0  0  0  0  0  0  0  0  0  0  0
   -0.9842   -2.4935    0.3958 C   0  0  0  0  0  0  0  0  0  0  0  0
   -0.8014   -0.1471   -0.5528 C   0  0  0  0  0  0  0  0  0  0  0  0
   -1.2191   -2.9688   -1.0396 C   0  0  0  0  0  0  0  0  0  0  0  0
   -0.9948   -0.7750   -1.9324 C   0  0  0  0  0  0  0  0  0  0  0  0
   -0.3463   -0.5603    1.9411 C   0  0  0  0  0  0  0  0  0  0  0  0
   -3.2547   -1.6732   -1.4880 C   0  0  0  0  0  0  0  0  0  0  0  0
    1.2850   -1.4027    0.2050 C   0  0  0  0  0  0  0  0  0  0  0  0
   -3.9577   -0.6325   -2.3812 C   0  0  0  0  0  0  0  0  0  0  0  0
   -0.4940   -1.3971    3.0658 C   0  0  0  0  0  0  0  0  0  0  0  0
   -0.3164    0.8270    2.1783 C   0  0  0  0  0  0  0  0  0  0  0  0
   -5.3783   -0.3377   -1.9643 C   0  0  0  0  0  0  0  0  0  0  0  0
   -0.6280   -0.8728    4.3562 C   0  0  0  0  0  0  0  0  0  0  0  0
   -0.4590    1.3513    3.4676 C   0  0  0  0  0  0  0  0  0  0  0  0
   -0.6117    0.5018    4.5572 C   0  0  0  0  0  0  0  0  0  0  0  0
    3.2597   -0.3787   -0.6894 C   0  0  0  0  0  0  0  0  0  0  0  0
   -6.4439   -1.0611   -2.5062 C   0  0  0  0  0  0  0  0  0  0  0  0
   -5.6533    0.6743   -1.0352 C   0  0  0  0  0  0  0  0  0  0  0  0
    4.1415   -0.1677    0.5236 C   0  0  0  0  0  0  0  0  0  0  0  0
   -7.7612   -0.7490   -2.1553 C   0  0  0  0  0  0  0  0  0  0  0  0
   -6.9735    0.9814   -0.6909 C   0  0  0  0  0  0  0  0  0  0  0  0
   -8.0408    0.3130   -1.2926 C   0  0  0  0  0  0  0  0  0  0  0  0
  1 12  1  0  0  0  0
  1 20  1  0  0  0  0
  2 12  2  0  0  0  0
  3  8  1  0  0  0  0
  3  9  1  0  0  0  0
  3 11  1  0  0  0  0
  4 26  1  0  0  0  0
  5  6  1  0  0  0  0
  5  7  1  0  0  0  0
  5 10  1  0  0  0  0
  5 12  1  0  0  0  0
  6  8  1  0  0  0  0
  7  9  1  0  0  0  0
 10 14  2  0  0  0  0
 10 15  1  0  0  0  0
 11 13  1  0  0  0  0
 13 16  1  0  0  0  0
 14 17  1  0  0  0  0
 15 18  2  0  0  0  0
 16 21  2  0  0  0  0
 16 22  1  0  0  0  0
 17 19  2  0  0  0  0
 18 19  1  0  0  0  0
 20 23  1  0  0  0  0
 21 24  1  0  0  0  0
 22 25  2  0  0  0  0
 24 26  2  0  0  0  0
 25 26  1  0  0  0  0
M  END
