
 OpenBabel10141417493D

 21 21  0  0  1  0  0  0  0  0999 V2000
   -2.9707    1.2871    2.2087 O   0  0  0  0  0  0  0  0  0  0  0  0
   -2.9684    1.7408    0.9139 C   0  0  0  0  0  0  0  0  0  0  0  0
   -2.8437    1.0257   -0.0638 O   0  0  0  0  0  0  0  0  0  0  0  0
   -4.9152   -1.2080    3.1840 C   0  0  3  0  0  0  0  0  0  0  0  0
   -3.9740   -0.9573    2.0005 C   0  0  0  0  0  0  0  0  0  0  0  0
   -3.3170   -0.6974    4.8285 C   0  0  3  0  0  0  0  0  0  0  0  0
   -2.2147   -0.3696    3.8029 C   0  0  0  0  0  0  0  0  0  0  0  0
   -2.7241   -0.1349    2.3649 C   0  0  2  0  0  0  0  0  0  0  0  0
   -4.1426   -1.8811    4.3412 N   0  3  0  0  0  0  0  0  0  0  0  0
   -5.9154   -4.5123    1.4668 Br  0  5  0  0  0  0  0  0  0  0  0  0
   -4.3426    0.4377    4.9065 C   0  0  0  0  0  0  0  0  0  0  0  0
   -5.3632    0.1306    3.8082 C   0  0  0  0  0  0  0  0  0  0  0  0
   -3.3199   -3.1169    3.9523 C   0  0  0  0  0  0  0  0  0  0  0  0
   -5.1432   -2.4125    5.3824 C   0  0  0  0  0  0  0  0  0  0  0  0
   -3.1049    3.2587    0.8614 C   0  0  0  0  0  0  0  0  0  0  0  0
   -1.7081    3.9206    0.8405 C   0  0  0  0  0  0  0  0  0  0  0  0
   -4.0506    3.6430   -0.2980 C   0  0  0  0  0  0  0  0  0  0  0  0
   -0.8101    3.5406   -0.3456 C   0  0  0  0  0  0  0  0  0  0  0  0
    0.5481    4.2357   -0.3025 C   0  0  0  0  0  0  0  0  0  0  0  0
   -4.2689    5.1508   -0.4491 C   0  0  0  0  0  0  0  0  0  0  0  0
   -5.2408    5.4809   -1.5738 C   0  0  0  0  0  0  0  0  0  0  0  0
  2  1  1  0  0  0  0
  2  3  2  0  0  0  0
  2 15  1  0  0  0  0
  4  9  1  0  0  0  0
  4 12  1  0  0  0  0
  5  4  1  0  0  0  0
  6  9  1  0  0  0  0
  6 11  1  0  0  0  0
  7  6  1  0  0  0  0
  7  8  1  0  0  0  0
  8  1  1  1  0  0  0
  8  5  1  0  0  0  0
  9 13  1  0  0  0  0
  9 14  1  0  0  0  0
 12 11  1  0  0  0  0
 15 16  1  0  0  0  0
 15 17  1  0  0  0  0
 16 18  1  0  0  0  0
 17 20  1  0  0  0  0
 18 19  1  0  0  0  0
 20 21  1  0  0  0  0
M  CHG  2   9   1  10  -1
M  END
