2200
 OpenBabel10141417493D

 20 22  0  0  1  0  0  0  0  0999 V2000
    2.2291    0.2686   -0.4201 N   0  0  0  0  0  0  0  0  0  0  0  0
    3.9721   -2.0155   -0.1954 N   0  0  0  0  0  0  0  0  0  0  0  0
    2.3317   -3.4482   -0.8712 N   0  0  0  0  0  0  0  0  0  0  0  0
    1.6647   -1.0574   -0.7703 C   0  0  0  0  0  0  0  0  0  0  0  0
    2.6627   -2.2110   -0.6012 C   0  0  0  0  0  0  0  0  0  0  0  0
    1.5818    0.9752    0.7049 C   0  0  0  0  0  0  0  0  0  0  0  0
    4.7039   -3.2187   -0.4771 C   0  0  0  0  0  0  0  0  0  0  0  0
    3.1906    0.8829   -1.2233 C   0  0  0  0  0  0  0  0  0  0  0  0
    3.5532   -4.2242   -0.4845 C   0  0  0  0  0  0  0  0  0  0  0  0
    2.1863    0.7065    2.0766 C   0  0  0  0  0  0  0  0  0  0  0  0
    3.6392    0.3054   -2.4281 C   0  0  0  0  0  0  0  0  0  0  0  0
    3.8447    2.0627   -0.8332 C   0  0  0  0  0  0  0  0  0  0  0  0
    3.5170    0.3050    2.2529 C   0  0  0  0  0  0  0  0  0  0  0  0
    1.4301    0.9724    3.2339 C   0  0  0  0  0  0  0  0  0  0  0  0
    4.7199    0.8241   -3.1519 C   0  0  0  0  0  0  0  0  0  0  0  0
    4.9119    2.6031   -1.5622 C   0  0  0  0  0  0  0  0  0  0  0  0
    4.0811    0.1792    3.5250 C   0  0  0  0  0  0  0  0  0  0  0  0
    1.9886    0.8333    4.5114 C   0  0  0  0  0  0  0  0  0  0  0  0
    5.3640    1.9706   -2.7116 C   0  0  0  0  0  0  0  0  0  0  0  0
    3.3181    0.4467    4.6556 C   0  0  0  0  0  0  0  0  0  0  0  0
  1  4  1  0  0  0  0
  1  6  1  0  0  0  0
  1  8  1  0  0  0  0
  2  5  1  0  0  0  0
  2  7  1  0  0  0  0
  3  5  2  0  0  0  0
  3  9  1  0  0  0  0
  4  5  1  0  0  0  0
  6 10  1  0  0  0  0
  7  9  1  0  0  0  0
  8 11  2  0  0  0  0
  8 12  1  0  0  0  0
 10 13  2  0  0  0  0
 10 14  1  0  0  0  0
 11 15  1  0  0  0  0
 12 16  2  0  0  0  0
 13 17  1  0  0  0  0
 14 18  2  0  0  0  0
 15 19  2  0  0  0  0
 16 19  1  0  0  0  0
 17 20  2  0  0  0  0
 18 20  1  0  0  0  0
M  END
