1435
 OpenBabel10141417503D

 14 15  0  0  1  0  0  0  0  0999 V2000
    1.0822   -0.1624    0.3395 O   0  0  0  0  0  0  0  0  0  0  0  0
    3.0480    1.1779    0.1292 N   0  0  0  0  0  0  0  0  0  0  0  0
    4.4351    0.8334    0.1340 N   0  0  0  0  0  0  0  0  0  0  0  0
    4.4700   -0.5499    0.3484 C   0  0  0  0  0  0  0  0  0  0  0  0
    2.6033    2.4932    0.4249 C   0  0  0  0  0  0  0  0  0  0  0  0
    2.2882    0.0100    0.2704 C   0  0  0  0  0  0  0  0  0  0  0  0
    3.2516   -1.1015    0.4226 C   0  0  0  0  0  0  0  0  0  0  0  0
    5.1849    1.3675   -1.0162 C   0  0  0  0  0  0  0  0  0  0  0  0
    5.7585   -1.2937    0.4562 C   0  0  0  0  0  0  0  0  0  0  0  0
    1.2500    2.8381    0.3041 C   0  0  0  0  0  0  0  0  0  0  0  0
    3.4971    3.4843    0.8596 C   0  0  0  0  0  0  0  0  0  0  0  0
    0.8064    4.1330    0.5943 C   0  0  0  0  0  0  0  0  0  0  0  0
    3.0561    4.7793    1.1511 C   0  0  0  0  0  0  0  0  0  0  0  0
    1.7099    5.1038    1.0156 C   0  0  0  0  0  0  0  0  0  0  0  0
  1  6  2  0  0  0  0
  2  3  1  0  0  0  0
  2  5  1  0  0  0  0
  2  6  1  0  0  0  0
  3  4  1  0  0  0  0
  3  8  1  0  0  0  0
  4  7  2  0  0  0  0
  4  9  1  0  0  0  0
  5 10  2  0  0  0  0
  5 11  1  0  0  0  0
  6  7  1  0  0  0  0
 10 12  1  0  0  0  0
 11 13  2  0  0  0  0
 12 14  2  0  0  0  0
 13 14  1  0  0  0  0
M  END
