1419
 OpenBabel10141417523D

 42 46  0  0  0  0  0  0  0  0999 V2000
   -3.0528   -0.1441    5.4919 F   0  0  0  0  0  0  0  0  0  0  0  0
   -4.9015    0.9991    5.5807 F   0  0  0  0  0  0  0  0  0  0  0  0
   -3.4267    1.4341    4.0459 F   0  0  0  0  0  0  0  0  0  0  0  0
    4.3899   -1.4640   -5.0236 F   0  0  0  0  0  0  0  0  0  0  0  0
    4.7193   -2.9483   -3.4723 F   0  0  0  0  0  0  0  0  0  0  0  0
    5.0288   -3.4716   -5.5596 F   0  0  0  0  0  0  0  0  0  0  0  0
   -2.8254   -6.5038   -2.0727 O   0  0  0  0  0  0  0  0  0  0  0  0
   -3.6387   -8.6434   -2.2530 O   0  0  0  0  0  0  0  0  0  0  0  0
   -3.6437   -6.7509    1.6110 N   0  0  0  0  0  0  0  0  0  0  0  0
   -4.4990   -4.1738    2.8434 N   0  0  0  0  0  0  0  0  0  0  0  0
   -1.7917   -5.6260   -4.4517 N   0  0  0  0  0  0  0  0  0  0  0  0
   -0.4700   -1.7381   -5.4973 N   0  0  0  0  0  0  0  0  0  0  0  0
   -4.9148   -6.6105    2.3630 C   0  0  0  0  0  0  0  0  0  0  0  0
   -2.6851   -5.8013    2.2162 C   0  0  0  0  0  0  0  0  0  0  0  0
   -5.4934   -5.1761    2.3953 C   0  0  0  0  0  0  0  0  0  0  0  0
   -3.1446   -4.3238    2.2583 C   0  0  0  0  0  0  0  0  0  0  0  0
   -3.8390   -6.5409    0.1637 C   0  0  0  0  0  0  0  0  0  0  0  0
   -4.9226   -2.8272    2.8482 C   0  0  0  0  0  0  0  0  0  0  0  0
   -2.5649   -6.7529   -0.6783 C   0  0  0  0  0  0  0  0  0  0  0  0
   -4.3264   -1.9220    3.7436 C   0  0  0  0  0  0  0  0  0  0  0  0
   -5.9070   -2.3225    1.9850 C   0  0  0  0  0  0  0  0  0  0  0  0
   -4.6976   -0.5639    3.7848 C   0  0  0  0  0  0  0  0  0  0  0  0
   -6.2999   -0.9818    2.0239 C   0  0  0  0  0  0  0  0  0  0  0  0
   -5.7024   -0.1070    2.9228 C   0  0  0  0  0  0  0  0  0  0  0  0
   -4.0265    0.4104    4.7183 C   0  0  0  0  0  0  0  0  0  0  0  0
   -3.3712   -7.5609   -2.7330 C   0  0  0  0  0  0  0  0  0  0  0  0
   -3.7271   -7.1697   -4.1180 C   0  0  0  0  0  0  0  0  0  0  0  0
   -2.9823   -6.2694   -4.9094 C   0  0  0  0  0  0  0  0  0  0  0  0
   -1.3345   -4.3306   -4.8645 C   0  0  0  0  0  0  0  0  0  0  0  0
    0.0507   -4.0167   -4.8640 C   0  0  0  0  0  0  0  0  0  0  0  0
   -4.9045   -7.7587   -4.6197 C   0  0  0  0  0  0  0  0  0  0  0  0
    0.4190   -2.6913   -5.1916 C   0  0  0  0  0  0  0  0  0  0  0  0
   -3.3891   -6.0989   -6.2456 C   0  0  0  0  0  0  0  0  0  0  0  0
    1.0739   -4.9439   -4.5606 C   0  0  0  0  0  0  0  0  0  0  0  0
   -2.2525   -3.3061   -5.1187 C   0  0  0  0  0  0  0  0  0  0  0  0
   -5.3527   -7.4616   -5.9035 C   0  0  0  0  0  0  0  0  0  0  0  0
    1.7580   -2.3310   -5.1752 C   0  0  0  0  0  0  0  0  0  0  0  0
    2.7709   -3.2313   -4.8163 C   0  0  0  0  0  0  0  0  0  0  0  0
   -4.5813   -6.6490   -6.7240 C   0  0  0  0  0  0  0  0  0  0  0  0
    2.4154   -4.5511   -4.5227 C   0  0  0  0  0  0  0  0  0  0  0  0
   -1.7770   -2.0533   -5.4486 C   0  0  0  0  0  0  0  0  0  0  0  0
    4.2070   -2.7801   -4.7237 C   0  0  0  0  0  0  0  0  0  0  0  0
  1 25  1  0  0  0  0
  2 25  1  0  0  0  0
  3 25  1  0  0  0  0
  4 42  1  0  0  0  0
  5 42  1  0  0  0  0
  6 42  1  0  0  0  0
  7 19  1  0  0  0  0
  7 26  1  0  0  0  0
  8 26  2  0  0  0  0
  9 13  1  0  0  0  0
  9 14  1  0  0  0  0
  9 17  1  0  0  0  0
 10 15  1  0  0  0  0
 10 16  1  0  0  0  0
 10 18  1  0  0  0  0
 11 28  1  0  0  0  0
 11 29  1  0  0  0  0
 12 32  2  0  0  0  0
 12 41  1  0  0  0  0
 13 15  1  0  0  0  0
 14 16  1  0  0  0  0
 17 19  1  0  0  0  0
 18 20  1  0  0  0  0
 18 21  2  0  0  0  0
 20 22  2  0  0  0  0
 21 23  1  0  0  0  0
 22 24  1  0  0  0  0
 22 25  1  0  0  0  0
 23 24  2  0  0  0  0
 26 27  1  0  0  0  0
 27 28  1  0  0  0  0
 27 31  2  0  0  0  0
 28 33  2  0  0  0  0
 29 30  2  0  0  0  0
 29 35  1  0  0  0  0
 30 32  1  0  0  0  0
 30 34  1  0  0  0  0
 31 36  1  0  0  0  0
 32 37  1  0  0  0  0
 33 39  1  0  0  0  0
 34 40  2  0  0  0  0
 35 41  2  0  0  0  0
 36 39  2  0  0  0  0
 37 38  2  0  0  0  0
 38 40  1  0  0  0  0
 38 42  1  0  0  0  0
M  END
