
 OpenBabel10141417533D

 37 40  0  0  1  0  0  0  0  0999 V2000
    0.2072    2.0487   -0.0879 C   0  0  1  0  0  0  0  0  0  0  0  0
    1.0691    2.9467   -1.1291 C   0  0  1  0  0  0  0  0  0  0  0  0
    1.7103    2.2218    3.3511 C   0  0  0  0  0  0  0  0  0  0  0  0
    1.4700    3.5269    3.7881 C   0  0  0  0  0  0  0  0  0  0  0  0
    1.7032    3.8794    5.1255 C   0  0  0  0  0  0  0  0  0  0  0  0
    2.0732    2.8867    6.0515 C   0  0  0  0  0  0  0  0  0  0  0  0
    2.2275    1.5609    5.6564 C   0  0  0  0  0  0  0  0  0  0  0  0
    2.0834    1.2601    4.3083 C   0  0  0  0  0  0  0  0  0  0  0  0
    2.4996    0.4418    6.6261 C   0  0  0  0  0  0  0  0  0  0  0  0
    1.6123    5.3176    5.5640 C   0  0  0  0  0  0  0  0  0  0  0  0
    1.3000    6.1746    4.5529 F   0  0  0  0  0  0  0  0  0  0  0  0
    2.6220    0.8672    7.9101 F   0  0  0  0  0  0  0  0  0  0  0  0
    1.6870    1.8894    1.8605 C   0  0  2  0  0  0  0  0  0  0  0  0
    0.4059    2.2262    1.3228 O   0  0  0  0  0  0  0  0  0  0  0  0
    2.0819    0.4067    1.6949 C   0  0  0  0  0  0  0  0  0  0  0  0
   -1.1905    2.2674   -0.3811 O   0  0  0  0  0  0  0  0  0  0  0  0
   -1.5838    3.6309   -0.1914 C   0  0  0  0  0  0  0  0  0  0  0  0
   -0.4113    4.6387   -0.1970 C   0  0  0  0  0  0  0  0  0  0  0  0
    0.6259    4.3853   -1.2359 N   0  0  0  0  0  0  0  0  0  0  0  0
    2.5991    2.8118   -0.9700 C   0  0  0  0  0  0  0  0  0  0  0  0
    3.1540    1.5446   -0.7812 C   0  0  0  0  0  0  0  0  0  0  0  0
    4.4725    1.3550   -0.3438 C   0  0  0  0  0  0  0  0  0  0  0  0
    5.3593    2.3918   -0.5071 C   0  0  0  0  0  0  0  0  0  0  0  0
    4.8953    3.6253   -0.9264 C   0  0  0  0  0  0  0  0  0  0  0  0
    3.5158    3.8640   -0.9922 C   0  0  0  0  0  0  0  0  0  0  0  0
    6.6643    2.1971   -0.2842 F   0  0  0  0  0  0  0  0  0  0  0  0
    0.0234    4.7545   -2.5563 C   0  0  0  0  0  0  0  0  0  0  0  0
    0.9162    4.5647   -3.7631 C   0  0  0  0  0  0  0  0  0  0  0  0
    2.2397    4.7361   -3.6972 N   0  0  0  0  0  0  0  0  0  0  0  0
    2.7213    4.2463   -4.8499 C   0  0  0  0  0  0  0  0  0  0  0  0
    1.6531    4.1170   -5.6913 N   0  0  0  0  0  0  0  0  0  0  0  0
    0.4907    4.2478   -4.9521 N   0  0  0  0  0  0  0  0  0  0  0  0
    3.9008    3.8561   -5.0458 O   0  0  0  0  0  0  0  0  0  0  0  0
    0.6780    5.5157    6.5315 F   0  0  0  0  0  0  0  0  0  0  0  0
    2.7916    5.7639    6.0787 F   0  0  0  0  0  0  0  0  0  0  0  0
    1.4976   -0.4820    6.6268 F   0  0  0  0  0  0  0  0  0  0  0  0
    3.6379   -0.2490    6.3405 F   0  0  0  0  0  0  0  0  0  0  0  0
  1  2  1  0  0  0  0
  1 14  1  1  0  0  0
  1 16  1  0  0  0  0
  2 19  1  0  0  0  0
  2 20  1  1  0  0  0
  3  4  2  0  0  0  0
  3  8  1  0  0  0  0
  4  5  1  0  0  0  0
  5  6  2  0  0  0  0
  5 10  1  0  0  0  0
  6  7  1  0  0  0  0
  7  8  2  0  0  0  0
  7  9  1  0  0  0  0
  9 12  1  0  0  0  0
  9 36  1  0  0  0  0
  9 37  1  0  0  0  0
 10 11  1  0  0  0  0
 10 34  1  0  0  0  0
 10 35  1  0  0  0  0
 13  3  1  1  0  0  0
 13 14  1  0  0  0  0
 13 15  1  0  0  0  0
 16 17  1  0  0  0  0
 17 18  1  0  0  0  0
 18 19  1  0  0  0  0
 19 27  1  0  0  0  0
 20 21  2  0  0  0  0
 20 25  1  0  0  0  0
 21 22  1  0  0  0  0
 22 23  2  0  0  0  0
 23 24  1  0  0  0  0
 23 26  1  0  0  0  0
 24 25  2  0  0  0  0
 27 28  1  0  0  0  0
 28 29  1  0  0  0  0
 28 32  2  0  0  0  0
 29 30  1  0  0  0  0
 30 31  1  0  0  0  0
 30 33  2  0  0  0  0
 31 32  1  0  0  0  0
M  END
