1102
 OpenBabel10141417503D

 23 24  0  0  1  0  0  0  0  0999 V2000
    0.8329   -0.3349   -0.3266 O   0  0  0  0  0  0  0  0  0  0  0  0
    2.6100   -1.4970   -5.0973 O   0  0  0  0  0  0  0  0  0  0  0  0
    4.1204    0.7027   -5.5804 O   0  0  0  0  0  0  0  0  0  0  0  0
   -3.3063   -4.9467    5.9966 O   0  0  0  0  0  0  0  0  0  0  0  0
    2.3450   -1.7984    1.6634 N   0  0  0  0  0  0  0  0  0  0  0  0
    2.3660   -3.2251    3.6398 C   0  0  0  0  0  0  0  0  0  0  0  0
    2.8675   -4.5187    4.2923 C   0  0  0  0  0  0  0  0  0  0  0  0
    2.8780   -3.0518    2.2128 C   0  0  0  0  0  0  0  0  0  0  0  0
    2.8241   -1.5971    0.2826 C   0  0  0  0  0  0  0  0  0  0  0  0
    2.3476   -4.6963    5.7252 C   0  0  0  0  0  0  0  0  0  0  0  0
    2.2609   -0.2827   -0.3122 C   0  0  1  0  0  0  0  0  0  0  0  0
    0.8432   -4.7870    5.8162 C   0  0  0  0  0  0  0  0  0  0  0  0
    2.7525   -0.0269   -1.7198 C   0  0  0  0  0  0  0  0  0  0  0  0
    2.4235   -0.9077   -2.7677 C   0  0  0  0  0  0  0  0  0  0  0  0
    3.5472    1.0990   -2.0008 C   0  0  0  0  0  0  0  0  0  0  0  0
    0.1895   -6.0168    5.6902 C   0  0  0  0  0  0  0  0  0  0  0  0
    0.0762   -3.6211    5.9904 C   0  0  0  0  0  0  0  0  0  0  0  0
    2.8917   -0.6568   -4.0527 C   0  0  0  0  0  0  0  0  0  0  0  0
    4.0038    1.3485   -3.2980 C   0  0  0  0  0  0  0  0  0  0  0  0
   -1.2055   -6.0892    5.7506 C   0  0  0  0  0  0  0  0  0  0  0  0
   -1.3155   -3.6934    6.0490 C   0  0  0  0  0  0  0  0  0  0  0  0
    3.6705    0.4626   -4.3137 C   0  0  0  0  0  0  0  0  0  0  0  0
   -1.9442   -4.9213    5.9323 C   0  0  0  0  0  0  0  0  0  0  0  0
  2 18  1  0  0  0  0
  3 22  1  0  0  0  0
  4 23  1  0  0  0  0
  5  8  1  0  0  0  0
  5  9  1  0  0  0  0
  6  7  1  0  0  0  0
  6  8  1  0  0  0  0
  7 10  1  0  0  0  0
  9 11  1  0  0  0  0
 10 12  1  0  0  0  0
 11  1  1  6  0  0  0
 11 13  1  0  0  0  0
 12 16  2  0  0  0  0
 12 17  1  0  0  0  0
 13 14  2  0  0  0  0
 13 15  1  0  0  0  0
 14 18  1  0  0  0  0
 15 19  2  0  0  0  0
 16 20  1  0  0  0  0
 17 21  2  0  0  0  0
 18 22  2  0  0  0  0
 19 22  1  0  0  0  0
 20 23  2  0  0  0  0
 21 23  1  0  0  0  0
M  END
