772
 OpenBabel10141417553D

 70 73  0  0  1  0  0  0  0  0999 V2000
    0.6202    9.2162   -2.7211 S   0  0  0  0  0  0  0  0  0  0  0  0
   -0.8941    5.1100   -3.4701 S   0  0  0  0  0  0  0  0  0  0  0  0
    7.8149    0.1257   -4.6712 S   0  0  0  0  0  0  0  0  0  0  0  0
    4.2705    0.2576    2.3217 S   0  0  0  0  0  0  0  0  0  0  0  0
   -1.5454    3.4863   -0.8510 S   0  0  0  0  0  0  0  0  0  0  0  0
    3.7674    6.5245   -0.5451 O   0  0  0  0  0  0  0  0  0  0  0  0
    3.6867    4.8557   -2.5294 O   0  0  0  0  0  0  0  0  0  0  0  0
    2.5228    4.4519    0.8846 O   0  0  0  0  0  0  0  0  0  0  0  0
    6.0759    2.9723   -0.7894 O   0  0  0  0  0  0  0  0  0  0  0  0
    4.2385    1.5936   -1.9535 O   0  0  0  0  0  0  0  0  0  0  0  0
    0.3923    4.9540   -2.2769 O   0  0  0  0  0  0  0  0  0  0  0  0
    0.7664    0.7965   -2.4370 O   0  0  0  0  0  0  0  0  0  0  0  0
    1.4366    2.2165    1.6637 O   0  0  0  0  0  0  0  0  0  0  0  0
    6.8204    0.3727   -3.3536 O   0  0  0  0  0  0  0  0  0  0  0  0
    4.8870    2.0734   -4.3194 O   0  0  0  0  0  0  0  0  0  0  0  0
    2.8885    3.1816   -4.7453 O   0  0  0  0  0  0  0  0  0  0  0  0
    4.4960    1.4299    1.2515 O   0  0  0  0  0  0  0  0  0  0  0  0
    1.3920    8.4797    1.8343 O   0  0  0  0  0  0  0  0  0  0  0  0
    3.9223   -0.4909   -0.9909 O   0  0  0  0  0  0  0  0  0  0  0  0
    0.3730   -0.8525   -3.7240 O   0  0  0  0  0  0  0  0  0  0  0  0
    2.0153   -1.4967    0.0701 O   0  0  0  0  0  0  0  0  0  0  0  0
   -0.9913    2.2911   -0.0613 O   0  0  0  0  0  0  0  0  0  0  0  0
    7.4567    5.7962   -0.8092 O   0  0  0  0  0  0  0  0  0  0  0  0
    1.5972    9.9108   -1.6576 O   0  0  0  0  0  0  0  0  0  0  0  0
    7.9508    4.5070   -2.5914 O   0  0  0  0  0  0  0  0  0  0  0  0
    0.6015   10.1176   -3.8424 O   0  0  0  0  0  0  0  0  0  0  0  0
   -0.5721    8.8229   -2.0134 O   0  0  0  0  0  0  0  0  0  0  0  0
   -1.7927    3.7432   -3.7780 O   0  0  0  0  0  0  0  0  0  0  0  0
   -1.9099    5.9665   -2.8931 O   0  0  0  0  0  0  0  0  0  0  0  0
   -0.2405    5.3902   -4.7269 O   0  0  0  0  0  0  0  0  0  0  0  0
    9.2805    0.7211   -4.3504 O   0  0  0  0  0  0  0  0  0  0  0  0
   -0.3470    0.1554    3.2690 O   0  0  0  0  0  0  0  0  0  0  0  0
    8.0333   -1.2958   -4.8698 O   0  0  0  0  0  0  0  0  0  0  0  0
    7.3706    0.9307   -5.7836 O   0  0  0  0  0  0  0  0  0  0  0  0
   -1.1120   -0.4757    1.2901 O   0  0  0  0  0  0  0  0  0  0  0  0
    3.3058    0.9872    3.3768 O   0  0  0  0  0  0  0  0  0  0  0  0
    3.0014    1.1028   -7.5124 O   0  0  0  0  0  0  0  0  0  0  0  0
    3.5295   -0.8509    1.7820 O   0  0  0  0  0  0  0  0  0  0  0  0
    5.5236    0.0007    2.9747 O   0  0  0  0  0  0  0  0  0  0  0  0
   -1.0987    4.7870   -0.0792 O   0  0  0  0  0  0  0  0  0  0  0  0
   -1.0316    3.2019   -2.0411 O   0  0  0  0  0  0  0  0  0  0  0  0
   -3.0664    3.5493   -0.7087 O   0  0  0  0  0  0  0  0  0  0  0  0
    1.4438    7.7633   -3.1935 N   0  0  0  0  0  0  0  0  0  0  0  0
    3.4715    0.0887   -5.4807 N   0  0  0  0  0  0  0  0  0  0  0  0
    1.8877    6.8434   -2.0675 C   0  0  3  0  0  0  0  0  0  0  0  0
    0.8616    5.9865   -1.3377 C   0  0  3  0  0  0  0  0  0  0  0  0
    1.5966    5.6216    0.2954 C   0  0  3  0  0  0  0  0  0  0  0  0
    3.3838    6.2622   -1.9655 C   0  0  3  0  0  0  0  0  0  0  0  0
    2.6980    6.7649    0.4883 C   0  0  3  0  0  0  0  0  0  0  0  0
    5.1261    4.2366   -2.7378 C   0  0  3  0  0  0  0  0  0  0  0  0
    5.7833    2.7577   -3.5154 C   0  0  3  0  0  0  0  0  0  0  0  0
    6.6044    1.6888   -2.7403 C   0  0  3  0  0  0  0  0  0  0  0  0
    5.7092    1.7755   -1.5195 C   0  0  3  0  0  0  0  0  0  0  0  0
    5.8450    4.2320   -1.4219 C   0  0  3  0  0  0  0  0  0  0  0  0
    2.9501    2.3574   -2.3758 C   0  0  3  0  0  0  0  0  0  0  0  0
    2.4291    2.9415    0.8449 C   0  0  3  0  0  0  0  0  0  0  0  0
    2.4623    2.1407   -3.8894 C   0  0  3  0  0  0  0  0  0  0  0  0
    1.2698    2.0160   -1.8630 C   0  0  3  0  0  0  0  0  0  0  0  0
    2.2906    0.6858   -4.5121 C   0  0  3  0  0  0  0  0  0  0  0  0
    2.3776    8.2861    0.8243 C   0  0  0  0  0  0  0  0  0  0  0  0
    3.5042    1.8857    0.3745 C   0  0  3  0  0  0  0  0  0  0  0  0
    2.9415    0.5117   -0.4652 C   0  0  3  0  0  0  0  0  0  0  0  0
    1.5019   -0.0881   -3.3321 C   0  0  3  0  0  0  0  0  0  0  0  0
    1.6691   -0.1172    0.0870 C   0  0  3  0  0  0  0  0  0  0  0  0
    1.1781    0.6372    1.4534 C   0  0  3  0  0  0  0  0  0  0  0  0
    7.1656    4.8685   -1.7296 C   0  0  0  0  0  0  0  0  0  0  0  0
    0.3819    2.4163   -0.5243 C   0  0  0  0  0  0  0  0  0  0  0  0
   -0.2224    0.0746    1.9208 C   0  0  0  0  0  0  0  0  0  0  0  0
    3.7585    0.3804   -6.8525 C   0  0  0  0  0  0  0  0  0  0  0  0
    5.0173   -0.3088   -7.6153 C   0  0  0  0  0  0  0  0  0  0  0  0
  1 24  1  0  0  0  0
  1 26  2  0  0  0  0
  1 27  2  0  0  0  0
  1 43  1  0  0  0  0
  2 11  1  0  0  0  0
  2 28  1  0  0  0  0
  2 29  2  0  0  0  0
  2 30  2  0  0  0  0
  3 14  1  0  0  0  0
  3 31  1  0  0  0  0
  3 33  2  0  0  0  0
  3 34  2  0  0  0  0
  4 17  1  0  0  0  0
  4 36  1  0  0  0  0
  4 38  2  0  0  0  0
  4 39  2  0  0  0  0
  5 22  1  0  0  0  0
  5 40  1  0  0  0  0
  5 41  2  0  0  0  0
  5 42  2  0  0  0  0
  6 48  1  0  0  0  0
  6 49  1  0  0  0  0
  7 48  1  0  0  0  0
  7 50  1  0  0  0  0
  8 47  1  0  0  0  0
  8 56  1  0  0  0  0
  9 53  1  0  0  0  0
  9 54  1  0  0  0  0
 10 53  1  0  0  0  0
 10 55  1  0  0  0  0
 11 46  1  0  0  0  0
 12 58  1  0  0  0  0
 12 63  1  0  0  0  0
 13 56  1  0  0  0  0
 13 65  1  0  0  0  0
 14 52  1  0  0  0  0
 15 51  1  0  0  0  0
 16 57  1  0  0  0  0
 17 61  1  0  0  0  0
 18 60  1  0  0  0  0
 19 62  1  0  0  0  0
 20 63  1  0  0  0  0
 21 64  1  0  0  0  0
 22 67  1  0  0  0  0
 23 66  1  0  0  0  0
 25 66  2  0  0  0  0
 32 68  1  0  0  0  0
 35 68  2  0  0  0  0
 37 69  2  0  0  0  0
 43 45  1  0  0  0  0
 44 59  1  0  0  0  0
 44 69  1  0  0  0  0
 45 46  1  0  0  0  0
 45 48  1  0  0  0  0
 46 47  1  0  0  0  0
 47 49  1  0  0  0  0
 49 60  1  0  0  0  0
 50 51  1  0  0  0  0
 50 54  1  0  0  0  0
 51 52  1  0  0  0  0
 52 53  1  0  0  0  0
 54 66  1  0  0  0  0
 55 57  1  0  0  0  0
 55 58  1  0  0  0  0
 56 61  1  0  0  0  0
 57 59  1  0  0  0  0
 58 67  1  0  0  0  0
 59 63  1  0  0  0  0
 61 62  1  0  0  0  0
 62 64  1  0  0  0  0
 64 65  1  0  0  0  0
 65 68  1  0  0  0  0
 69 70  1  0  0  0  0
M  END
