1238
 OpenBabel10141417533D

 30 33  0  0  0  0  0  0  0  0999 V2000
    4.7737    0.6694   -1.3555 Cl  0  0  0  0  0  0  0  0  0  0  0  0
    7.8001    0.6622   -0.2823 Cl  0  0  0  0  0  0  0  0  0  0  0  0
   -1.3609    8.5658   -1.6221 O   0  0  0  0  0  0  0  0  0  0  0  0
   -5.6631   13.1845    1.5383 O   0  0  0  0  0  0  0  0  0  0  0  0
    0.2729    3.6327   -0.2973 N   0  0  0  0  0  0  0  0  0  0  0  0
    2.8764    2.3301    0.3579 N   0  0  0  0  0  0  0  0  0  0  0  0
   -4.3232   11.7137    0.4572 N   0  0  0  0  0  0  0  0  0  0  0  0
    0.3998    2.5203    0.6809 C   0  0  0  0  0  0  0  0  0  0  0  0
    1.3809    3.4936   -1.2703 C   0  0  0  0  0  0  0  0  0  0  0  0
    1.7883    2.3992    1.3604 C   0  0  0  0  0  0  0  0  0  0  0  0
    2.7974    3.4093   -0.6577 C   0  0  0  0  0  0  0  0  0  0  0  0
    0.2319    4.9393    0.3797 C   0  0  0  0  0  0  0  0  0  0  0  0
    0.1026    6.1526   -0.5525 C   0  0  0  0  0  0  0  0  0  0  0  0
    4.2015    2.1971    0.8497 C   0  0  0  0  0  0  0  0  0  0  0  0
   -1.1449    6.1247   -1.4381 C   0  0  0  0  0  0  0  0  0  0  0  0
   -1.1730    7.3486   -2.3606 C   0  0  0  0  0  0  0  0  0  0  0  0
    5.2005    1.5029    0.1142 C   0  0  0  0  0  0  0  0  0  0  0  0
    4.5917    2.8043    2.0592 C   0  0  0  0  0  0  0  0  0  0  0  0
   -5.2399    9.7790   -0.6523 C   0  0  0  0  0  0  0  0  0  0  0  0
   -6.6216   10.2635   -0.3425 C   0  0  0  0  0  0  0  0  0  0  0  0
   -4.1214   10.5233   -0.2652 C   0  0  0  0  0  0  0  0  0  0  0  0
   -2.6539    8.9294   -1.3431 C   0  0  0  0  0  0  0  0  0  0  0  0
    6.5280    1.4607    0.5800 C   0  0  0  0  0  0  0  0  0  0  0  0
    5.9082    2.7515    2.5197 C   0  0  0  0  0  0  0  0  0  0  0  0
   -6.6372   11.0669    0.9468 C   0  0  0  0  0  0  0  0  0  0  0  0
   -2.8297   10.1117   -0.6107 C   0  0  0  0  0  0  0  0  0  0  0  0
    6.8767    2.0879    1.7779 C   0  0  0  0  0  0  0  0  0  0  0  0
   -5.0595    8.6241   -1.4127 C   0  0  0  0  0  0  0  0  0  0  0  0
   -3.7769    8.2015   -1.7383 C   0  0  0  0  0  0  0  0  0  0  0  0
   -5.5261   12.0861    0.9717 C   0  0  0  0  0  0  0  0  0  0  0  0
  1 17  1  0  0  0  0
  2 23  1  0  0  0  0
  3 16  1  0  0  0  0
  3 22  1  0  0  0  0
  4 30  2  0  0  0  0
  5  8  1  0  0  0  0
  5  9  1  0  0  0  0
  5 12  1  0  0  0  0
  6 10  1  0  0  0  0
  6 11  1  0  0  0  0
  6 14  1  0  0  0  0
  7 21  1  0  0  0  0
  7 30  1  0  0  0  0
  8 10  1  0  0  0  0
  9 11  1  0  0  0  0
 12 13  1  0  0  0  0
 13 15  1  0  0  0  0
 14 17  2  0  0  0  0
 14 18  1  0  0  0  0
 15 16  1  0  0  0  0
 17 23  1  0  0  0  0
 18 24  2  0  0  0  0
 19 20  1  0  0  0  0
 19 21  2  0  0  0  0
 19 28  1  0  0  0  0
 20 25  1  0  0  0  0
 21 26  1  0  0  0  0
 22 26  2  0  0  0  0
 22 29  1  0  0  0  0
 23 27  2  0  0  0  0
 24 27  1  0  0  0  0
 25 30  1  0  0  0  0
 28 29  2  0  0  0  0
M  END
