
 OpenBabel10141417503D

  5  6  0  0  0  0  0  0  0  0999 V2000
    0.2658    0.8010   -0.8459 As  0  0  3  0  0  0  0  0  0  0  0  0
   -0.4665   -1.4067    0.0790 As  0  0  3  0  0  0  0  0  0  0  0  0
   -1.1394    0.2994    0.2306 O   0  0  0  0  0  0  0  0  0  0  0  0
    1.0927   -0.4410    0.2307 O   0  0  0  0  0  0  0  0  0  0  0  0
   -0.2571   -0.7757   -1.6350 O   0  0  0  0  0  0  0  0  0  0  0  0
  1  3  1  0  0  0  0
  1  4  1  0  0  0  0
  1  5  1  0  0  0  0
  2  3  1  0  0  0  0
  2  4  1  0  0  0  0
  2  5  1  0  0  0  0
M  END
