
 OpenBabel10141417573D

 18 19  0  0  0  0  0  0  0  0999 V2000
   -0.8861   -1.0631   -0.2645 C   0  0  0  0  0  0  0  0  0  0  0  0
   -1.5267    0.1718   -0.1874 C   0  0  0  0  0  0  0  0  0  0  0  0
   -0.7827    1.3374   -0.0297 C   0  0  0  0  0  0  0  0  0  0  0  0
    0.6148    1.2837    0.0416 C   0  0  0  0  0  0  0  0  0  0  0  0
    1.2989    0.0413   -0.0222 C   0  0  0  0  0  0  0  0  0  0  0  0
    0.5102   -1.1314   -0.1688 C   0  0  0  0  0  0  0  0  0  0  0  0
    2.7450    0.0533    0.0157 N   0  0  0  0  0  0  0  0  0  0  0  0
    3.6363    1.0984    0.1070 C   0  0  0  0  0  0  0  0  0  0  0  0
    3.2577    2.5510    0.2058 C   0  0  0  0  0  0  0  0  0  0  0  0
   -1.9586   -2.6529   -0.6969 As  0  0  3  0  0  0  0  0  0  0  0  0
   -1.7909   -2.6362   -2.9556 S   0  0  0  0  0  0  0  0  0  0  0  0
   -3.5961   -2.7387   -3.3169 C   0  0  0  0  0  0  0  0  0  0  0  0
   -4.4985   -2.9379   -2.0858 C   0  0  3  0  0  0  0  0  0  0  0  0
   -4.0239   -1.7363   -0.8055 S   0  0  0  0  0  0  0  0  0  0  0  0
   -4.5475   -4.3770   -1.5228 C   0  0  0  0  0  0  0  0  0  0  0  0
   -5.3936   -4.4486   -0.4084 O   0  0  0  0  0  0  0  0  0  0  0  0
    1.3167    2.4364    0.1434 O   0  0  0  0  0  0  0  0  0  0  0  0
    4.8288    0.8427    0.1193 O   0  0  0  0  0  0  0  0  0  0  0  0
  1  2  2  0  0  0  0
  1  6  1  0  0  0  0
  1 10  1  0  0  0  0
  2  3  1  0  0  0  0
  3  4  2  0  0  0  0
  4  5  1  0  0  0  0
  4 17  1  0  0  0  0
  5  6  2  0  0  0  0
  5  7  1  0  0  0  0
  7  8  1  0  0  0  0
  8  9  1  0  0  0  0
  8 18  2  0  0  0  0
 10 11  1  0  0  0  0
 10 14  1  0  0  0  0
 11 12  1  0  0  0  0
 12 13  1  0  0  0  0
 13 14  1  0  0  0  0
 13 15  1  0  0  0  0
 15 16  1  0  0  0  0
M  END
