
 OpenBabel10141417483D

 19 19  0  0  0  0  0  0  0  0999 V2000
    6.9024   -3.9060   -6.1083 C   0  0  0  0  0  0  0  0  0  0  0  0
    8.3691    0.5047    1.2305 C   0  0  0  0  0  0  0  0  0  0  0  0
    4.7934   -3.4093   -0.2430 C   0  0  0  0  0  0  0  0  0  0  0  0
    1.7594    0.9795   -2.0983 C   0  0  0  0  0  0  0  0  0  0  0  0
    6.3699   -4.4595   -4.7945 C   0  0  0  0  0  0  0  0  0  0  0  0
    6.0493   -3.3230   -3.8177 C   0  0  0  0  0  0  0  0  0  0  0  0
    6.3113    1.9727    1.1883 C   0  0  0  0  0  0  0  0  0  0  0  0
    7.0034    0.8741    0.7380 C   0  0  0  0  0  0  0  0  0  0  0  0
    5.3559   -2.7667   -1.5102 C   0  0  3  0  0  0  0  0  0  0  0  0
    6.2810    0.1530   -0.2956 C   0  0  0  0  0  0  0  0  0  0  0  0
    5.0752    0.7581   -0.6128 C   0  0  0  0  0  0  0  0  0  0  0  0
    6.6794   -2.0644   -1.2122 C   0  0  0  0  0  0  0  0  0  0  0  0
    4.0638    0.5353   -1.6299 C   0  0  0  0  0  0  0  0  0  0  0  0
    5.6296   -3.8683   -2.5076 N   0  0  0  0  0  0  0  0  0  0  0  0
    7.0350   -0.9017   -0.8108 N   0  0  0  0  0  0  0  0  0  0  0  0
    7.7212   -2.9366   -1.3999 O   0  0  0  0  0  0  0  0  0  0  0  0
    4.2313    0.0284   -2.7327 O   0  0  0  0  0  0  0  0  0  0  0  0
    2.8516    0.9891   -1.1812 O   0  0  0  0  0  0  0  0  0  0  0  0
    4.8296    2.1585    0.4011 S   0  0  0  0  0  0  0  0  0  0  0  0
  5  1  1  0  0  0  0
  6  5  1  0  0  0  0
  8  2  1  0  0  0  0
  8  7  2  0  0  0  0
  9  3  1  0  0  0  0
 10  8  1  0  0  0  0
 11 10  2  0  0  0  0
 12  9  1  0  0  0  0
 13 11  1  0  0  0  0
 14  6  1  0  0  0  0
 14  9  1  0  0  0  0
 15 10  1  0  0  0  0
 15 12  2  3  0  0  0
 16 12  1  0  0  0  0
 17 13  2  0  0  0  0
 18  4  1  0  0  0  0
 18 13  1  0  0  0  0
 19  7  1  0  0  0  0
 19 11  1  0  0  0  0
M  END
