
 OpenBabel10141417493D

 21 21  0  0  0  0  0  0  0  0999 V2000
    1.2868   -2.1088    0.7308 C   0  0  0  0  0  0  0  0  0  0  0  0
    2.0748   -1.0366    0.0077 C   0  0  0  0  0  0  0  0  0  0  0  0
    2.8883   -1.5852   -1.1661 C   0  0  1  0  0  0  0  0  0  0  0  0
    1.9494   -2.1618   -2.2498 C   0  0  0  0  0  0  0  0  0  0  0  0
    2.5695   -2.7285   -3.3311 N   0  0  0  0  0  0  0  0  0  0  0  0
    1.7989   -3.3379   -4.4188 C   0  0  1  0  0  0  0  0  0  0  0  0
    2.0490   -2.6217   -5.7516 C   0  0  0  0  0  0  0  0  0  0  0  0
    1.6018   -1.1680   -5.7887 C   0  0  0  0  0  0  0  0  0  0  0  0
    2.1183    1.1603   -6.2800 C   0  0  0  0  0  0  0  0  0  0  0  0
    2.5322   -0.1588   -6.0783 C   0  0  0  0  0  0  0  0  0  0  0  0
    0.2555   -0.8065   -5.6221 C   0  0  0  0  0  0  0  0  0  0  0  0
   -0.1548    0.5185   -5.8077 C   0  0  0  0  0  0  0  0  0  0  0  0
    0.7723    1.4958   -6.1631 C   0  0  0  0  0  0  0  0  0  0  0  0
    1.6891   -2.6665    1.7280 O   0  0  0  0  0  0  0  0  0  0  0  0
    0.0756   -2.3857    0.1945 O   0  0  0  0  0  0  0  0  0  0  0  0
    3.7169   -0.5225   -1.7853 N   0  0  0  0  0  0  0  0  0  0  0  0
    0.7221   -2.1246   -2.1429 O   0  0  0  0  0  0  0  0  0  0  0  0
    2.1500   -4.8326   -4.4768 C   0  0  0  0  0  0  0  0  0  0  0  0
    3.2356   -5.3017   -4.1513 O   0  0  0  0  0  0  0  0  0  0  0  0
    1.0859   -5.5597   -4.9251 O   0  0  0  0  0  0  0  0  0  0  0  0
    1.2530   -6.9840   -4.9506 C   0  0  0  0  0  0  0  0  0  0  0  0
  1  2  1  0  0  0  0
  1 14  2  0  0  0  0
  1 15  1  0  0  0  0
  3  2  1  1  0  0  0
  3  4  1  0  0  0  0
  3 16  1  0  0  0  0
  4  5  1  0  0  0  0
  4 17  2  0  0  0  0
  6  5  1  1  0  0  0
  6  7  1  0  0  0  0
  6 18  1  0  0  0  0
  7  8  1  0  0  0  0
  8 11  1  0  0  0  0
  9 10  1  0  0  0  0
  9 13  2  0  0  0  0
 10  8  2  0  0  0  0
 11 12  2  0  0  0  0
 12 13  1  0  0  0  0
 18 19  2  0  0  0  0
 18 20  1  0  0  0  0
 20 21  1  0  0  0  0
M  END
