637
 OpenBabel10141417493D

 34 38  0  0  0  0  0  0  0  0999 V2000
    8.4357   -5.2607   -7.7678 F   0  0  0  0  0  0  0  0  0  0  0  0
   -4.1568   -7.2821   -0.8950 O   0  0  0  0  0  0  0  0  0  0  0  0
    3.4873   -6.4218   -2.0234 N   0  0  0  0  0  0  0  0  0  0  0  0
    5.8965   -3.6850   -1.4135 N   0  0  0  0  0  0  0  0  0  0  0  0
    7.7026   -2.3493   -2.2134 N   0  0  0  0  0  0  0  0  0  0  0  0
    5.7831   -1.3274   -1.7774 N   0  0  0  0  0  0  0  0  0  0  0  0
    4.4897   -3.7961   -1.0219 C   0  0  0  0  0  0  0  0  0  0  0  0
    4.2869   -5.0017   -0.0964 C   0  0  0  0  0  0  0  0  0  0  0  0
    3.5992   -3.9215   -2.2619 C   0  0  0  0  0  0  0  0  0  0  0  0
    4.3684   -6.3346   -0.8472 C   0  0  0  0  0  0  0  0  0  0  0  0
    3.7469   -5.2900   -2.9264 C   0  0  0  0  0  0  0  0  0  0  0  0
    2.0664   -6.5546   -1.6484 C   0  0  0  0  0  0  0  0  0  0  0  0
    1.1267   -6.7190   -2.8601 C   0  0  0  0  0  0  0  0  0  0  0  0
    6.4074   -2.4912   -1.7689 C   0  0  0  0  0  0  0  0  0  0  0  0
   -0.3056   -6.8551   -2.4221 C   0  0  0  0  0  0  0  0  0  0  0  0
    7.9299   -1.0155   -2.4729 C   0  0  0  0  0  0  0  0  0  0  0  0
    8.6635   -3.4224   -2.4336 C   0  0  0  0  0  0  0  0  0  0  0  0
    6.7061   -0.4116   -2.2045 C   0  0  0  0  0  0  0  0  0  0  0  0
    9.0417   -0.2954   -2.9274 C   0  0  0  0  0  0  0  0  0  0  0  0
    8.6159   -3.9321   -3.8554 C   0  0  0  0  0  0  0  0  0  0  0  0
   -1.0855   -5.7085   -2.2364 C   0  0  0  0  0  0  0  0  0  0  0  0
   -0.8520   -8.1112   -2.1486 C   0  0  0  0  0  0  0  0  0  0  0  0
    6.5656    0.9735   -2.3966 C   0  0  0  0  0  0  0  0  0  0  0  0
    8.8763    1.0766   -3.1406 C   0  0  0  0  0  0  0  0  0  0  0  0
    7.6590    1.7046   -2.8774 C   0  0  0  0  0  0  0  0  0  0  0  0
   -2.3860   -5.8142   -1.7508 C   0  0  0  0  0  0  0  0  0  0  0  0
   -2.1520   -8.2122   -1.6533 C   0  0  0  0  0  0  0  0  0  0  0  0
    7.7498   -4.9777   -4.2152 C   0  0  0  0  0  0  0  0  0  0  0  0
    9.4182   -3.3484   -4.8498 C   0  0  0  0  0  0  0  0  0  0  0  0
   -2.9175   -7.0646   -1.4335 C   0  0  0  0  0  0  0  0  0  0  0  0
    7.6915   -5.4279   -5.5360 C   0  0  0  0  0  0  0  0  0  0  0  0
    9.3526   -3.7929   -6.1701 C   0  0  0  0  0  0  0  0  0  0  0  0
    8.4917   -4.8300   -6.5010 C   0  0  0  0  0  0  0  0  0  0  0  0
   -4.9356   -6.1174   -0.6460 C   0  0  0  0  0  0  0  0  0  0  0  0
  1 33  1  0  0  0  0
  2 30  1  0  0  0  0
  2 34  1  0  0  0  0
  3 10  1  0  0  0  0
  3 11  1  0  0  0  0
  3 12  1  0  0  0  0
  4  7  1  0  0  0  0
  4 14  1  0  0  0  0
  5 14  1  0  0  0  0
  5 16  1  0  0  0  0
  5 17  1  0  0  0  0
  6 14  2  0  0  0  0
  6 18  1  0  0  0  0
  7  8  1  0  0  0  0
  7  9  1  0  0  0  0
  8 10  1  0  0  0  0
  9 11  1  0  0  0  0
 12 13  1  0  0  0  0
 13 15  1  0  0  0  0
 15 21  2  0  0  0  0
 15 22  1  0  0  0  0
 16 18  1  0  0  0  0
 16 19  2  0  0  0  0
 17 20  1  0  0  0  0
 18 23  2  0  0  0  0
 19 24  1  0  0  0  0
 20 28  2  0  0  0  0
 20 29  1  0  0  0  0
 21 26  1  0  0  0  0
 22 27  2  0  0  0  0
 23 25  1  0  0  0  0
 24 25  2  0  0  0  0
 26 30  2  0  0  0  0
 27 30  1  0  0  0  0
 28 31  1  0  0  0  0
 29 32  2  0  0  0  0
 31 33  2  0  0  0  0
 32 33  1  0  0  0  0
M  END
