
 OpenBabel10141417533D

 41 44  0  0  0  0  0  0  0  0999 V2000
    2.3851   -4.0405   -6.6823 C   0  0  0  0  0  0  0  0  0  0  0  0
    1.7489   -1.6227   -6.7018 C   0  0  0  0  0  0  0  0  0  0  0  0
    8.2304   -1.3926  -10.1734 C   0  0  0  0  0  0  0  0  0  0  0  0
    8.9162   -1.7259   -9.0185 C   0  0  0  0  0  0  0  0  0  0  0  0
    6.9150   -0.9471  -10.0837 C   0  0  0  0  0  0  0  0  0  0  0  0
    8.2494   -1.6943   -7.7928 C   0  0  0  0  0  0  0  0  0  0  0  0
    6.2408   -0.9637   -8.8526 C   0  0  0  0  0  0  0  0  0  0  0  0
    6.8943   -5.5006   -5.9680 C   0  0  0  0  0  0  0  0  0  0  0  0
    8.5530   -3.8458   -5.4797 C   0  0  0  0  0  0  0  0  0  0  0  0
    7.8853   -6.4920   -5.9338 C   0  0  0  0  0  0  0  0  0  0  0  0
    9.5602   -4.8215   -5.5200 C   0  0  0  0  0  0  0  0  0  0  0  0
    7.4489    0.4837   -5.0391 C   0  0  0  0  0  0  0  0  0  0  0  0
    6.9160    2.7626   -4.5912 C   0  0  0  0  0  0  0  0  0  0  0  0
    8.7718    0.6778   -4.7248 C   0  0  0  0  0  0  0  0  0  0  0  0
    8.2442    2.9644   -4.1685 C   0  0  0  0  0  0  0  0  0  0  0  0
    5.6427   -3.6724   -2.8333 C   0  0  0  0  0  0  0  0  0  0  0  0
    4.6096   -3.8196   -3.9607 C   0  0  0  0  0  0  0  0  0  0  0  0
    4.8551   -1.3191   -1.9205 C   0  0  0  0  0  0  0  0  0  0  0  0
    3.2673   -2.8372   -0.5013 C   0  0  0  0  0  0  0  0  0  0  0  0
    2.9111   -2.6133   -6.7755 C   0  0  0  0  0  0  0  0  0  0  0  0
    6.8781   -1.4342   -7.7008 C   0  0  0  0  0  0  0  0  0  0  0  0
    7.2124   -4.1395   -5.7892 C   0  0  0  0  0  0  0  0  0  0  0  0
    9.2171   -6.1419   -5.7536 C   0  0  0  0  0  0  0  0  0  0  0  0
    6.5180    1.5066   -5.0326 C   0  0  0  0  0  0  0  0  0  0  0  0
    9.1786    1.9122   -4.2624 C   0  0  0  0  0  0  0  0  0  0  0  0
    5.9925   -2.2403   -2.4097 C   0  0  3  0  0  0  0  0  0  0  0  0
    4.1487   -1.6001   -0.5815 C   0  0  3  0  0  0  0  0  0  0  0  0
    2.0963   -2.8263   -1.4736 C   0  0  0  0  0  0  0  0  0  0  0  0
    6.0511   -1.8343   -6.5483 C   0  0  0  0  0  0  0  0  0  0  0  0
    4.9191   -1.1796   -5.9075 C   0  0  0  0  0  0  0  0  0  0  0  0
    4.0801   -2.2862   -5.8524 C   0  0  0  0  0  0  0  0  0  0  0  0
    6.1643   -3.0907   -5.8732 C   0  0  0  0  0  0  0  0  0  0  0  0
    4.4216    0.1591   -5.5406 C   0  0  0  0  0  0  0  0  0  0  0  0
   10.1688   -7.0858   -5.7740 F   0  0  0  0  0  0  0  0  0  0  0  0
    5.1784    1.3012   -5.3596 N   0  0  0  0  0  0  0  0  0  0  0  0
    4.9249   -3.2027   -5.2406 N   0  0  0  0  0  0  0  0  0  0  0  0
    7.0699   -2.3109   -1.4617 O   0  0  0  0  0  0  0  0  0  0  0  0
    5.1478   -1.6548    0.4544 O   0  0  0  0  0  0  0  0  0  0  0  0
    1.4056   -1.7727   -1.4791 O   0  0  0  0  0  0  0  0  0  0  0  0
    3.2453    0.3413   -5.2205 O   0  0  0  0  0  0  0  0  0  0  0  0
    1.9460   -3.8987   -2.1245 O   0  5  0  0  0  0  0  0  0  0  0  0
  4  3  2  0  0  0  0
  5  3  1  0  0  0  0
  6  4  1  0  0  0  0
  7  5  2  0  0  0  0
 10  8  1  0  0  0  0
 11  9  2  0  0  0  0
 14 12  1  0  0  0  0
 15 13  2  0  0  0  0
 17 16  1  0  0  0  0
 20  1  1  0  0  0  0
 20  2  1  0  0  0  0
 21  6  2  0  0  0  0
 21  7  1  0  0  0  0
 22  8  2  0  0  0  0
 22  9  1  0  0  0  0
 23 10  2  0  0  0  0
 23 11  1  0  0  0  0
 24 12  2  0  0  0  0
 24 13  1  0  0  0  0
 25 14  2  0  0  0  0
 25 15  1  0  0  0  0
 26 16  1  0  0  0  0
 26 18  1  0  0  0  0
 27 18  1  0  0  0  0
 27 19  1  0  0  0  0
 28 19  1  0  0  0  0
 28 41  1  0  0  0  0
 29 21  1  0  0  0  0
 30 29  1  0  0  0  0
 31 20  1  0  0  0  0
 31 30  2  0  0  0  0
 32 22  1  0  0  0  0
 32 29  2  0  0  0  0
 33 30  1  0  0  0  0
 34 23  1  0  0  0  0
 35 24  1  0  0  0  0
 35 33  1  0  0  0  0
 36 17  1  0  0  0  0
 36 31  1  0  0  0  0
 36 32  1  0  0  0  0
 37 26  1  0  0  0  0
 38 27  1  0  0  0  0
 39 28  2  0  0  0  0
 40 33  2  0  0  0  0
M  CHG  1  41  -1
M  END
