732
 OpenBabel10141417493D

 67 72  0  0  1  0  0  0  0  0999 V2000
   -4.4090    6.8871  -11.3432 O   0  0  0  0  0  0  0  0  0  0  0  0
  -11.0469   -1.0034  -11.2699 O   0  0  0  0  0  0  0  0  0  0  0  0
   -1.8294    7.9851  -10.6170 O   0  0  0  0  0  0  0  0  0  0  0  0
  -12.9355    0.4793   -9.6436 O   0  0  0  0  0  0  0  0  0  0  0  0
   -3.1508    1.0008   -7.5260 O   0  0  0  0  0  0  0  0  0  0  0  0
   -2.6436    3.2527   -7.1555 O   0  0  0  0  0  0  0  0  0  0  0  0
   -3.9360    2.1229   -9.3194 O   0  0  0  0  0  0  0  0  0  0  0  0
   -2.1637    4.9217   -8.6694 O   0  0  0  0  0  0  0  0  0  0  0  0
   -9.2697    9.2294   -2.4333 O   0  0  0  0  0  0  0  0  0  0  0  0
   -9.3863   -4.1247   -9.9923 O   0  0  0  0  0  0  0  0  0  0  0  0
  -10.0706    6.5272   -1.6966 O   0  0  0  0  0  0  0  0  0  0  0  0
   -9.0126   -6.0408   -7.8904 O   0  0  0  0  0  0  0  0  0  0  0  0
   -4.7944    5.5727   -5.5260 N   0  3  3  0  0  0  0  0  0  0  0  0
   -7.3222    2.1379   -8.3062 N   0  3  3  0  0  0  0  0  0  0  0  0
   -5.5897    6.4954   -6.5603 C   0  0  3  0  0  0  0  0  0  0  0  0
   -7.5594    0.5422   -8.4952 C   0  0  3  0  0  0  0  0  0  0  0  0
   -3.6095    6.4207   -4.9338 C   0  0  0  0  0  0  0  0  0  0  0  0
   -7.9473    2.5549   -6.9934 C   0  0  0  0  0  0  0  0  0  0  0  0
   -4.1155    4.4242   -6.0957 C   0  0  0  0  0  0  0  0  0  0  0  0
   -5.9318    2.2172   -8.3871 C   0  0  0  0  0  0  0  0  0  0  0  0
   -4.6544    7.0182   -7.6691 C   0  0  0  0  0  0  0  0  0  0  0  0
   -8.9759    0.5492   -8.7877 C   0  0  0  0  0  0  0  0  0  0  0  0
   -2.8094    7.2722   -5.9413 C   0  0  0  0  0  0  0  0  0  0  0  0
   -9.4129    2.2560   -6.9441 C   0  0  0  0  0  0  0  0  0  0  0  0
   -5.4980    4.8773   -4.4285 C   0  0  0  0  0  0  0  0  0  0  0  0
   -7.6345    3.0021   -9.4894 C   0  0  0  0  0  0  0  0  0  0  0  0
   -6.3469    7.6597   -5.8887 C   0  0  0  0  0  0  0  0  0  0  0  0
   -7.3199   -0.4994   -7.2892 C   0  0  0  0  0  0  0  0  0  0  0  0
   -3.3685    7.4416   -7.3268 C   0  0  0  0  0  0  0  0  0  0  0  0
   -9.8274    1.2540   -7.9667 C   0  0  0  0  0  0  0  0  0  0  0  0
   -4.7740    3.0883   -6.6663 C   0  0  0  0  0  0  0  0  0  0  0  0
   -4.8753    3.8828   -8.7008 C   0  0  0  0  0  0  0  0  0  0  0  0
   -4.9762    6.9318   -9.0506 C   0  0  0  0  0  0  0  0  0  0  0  0
   -9.3633   -0.0835   -9.9361 C   0  0  0  0  0  0  0  0  0  0  0  0
   -7.4146    7.3344   -4.8593 C   0  0  0  0  0  0  0  0  0  0  0  0
   -7.7150   -1.9925   -7.4903 C   0  0  0  0  0  0  0  0  0  0  0  0
   -2.4890    7.8726   -8.3284 C   0  0  0  0  0  0  0  0  0  0  0  0
  -11.1437    1.1288   -8.2251 C   0  0  0  0  0  0  0  0  0  0  0  0
   -4.0367    7.2310  -10.0648 C   0  0  0  0  0  0  0  0  0  0  0  0
  -10.6907   -0.2569  -10.1865 C   0  0  0  0  0  0  0  0  0  0  0  0
   -2.7964    7.7453   -9.6847 C   0  0  0  0  0  0  0  0  0  0  0  0
  -11.6018    0.4242   -9.3440 C   0  0  0  0  0  0  0  0  0  0  0  0
   -3.9187    1.9964   -8.0517 C   0  0  0  0  0  0  0  0  0  0  0  0
   -3.1060    3.9390   -8.2970 C   0  0  0  0  0  0  0  0  0  0  0  0
   -7.9869    8.3601   -4.1306 C   0  0  0  0  0  0  0  0  0  0  0  0
   -8.1721   -2.5739   -8.6818 C   0  0  0  0  0  0  0  0  0  0  0  0
   -7.8948    6.0577   -4.5615 C   0  0  0  0  0  0  0  0  0  0  0  0
   -7.7270   -2.8635   -6.4102 C   0  0  0  0  0  0  0  0  0  0  0  0
   -8.8732    8.0882   -3.0694 C   0  0  0  0  0  0  0  0  0  0  0  0
   -8.7683   -3.8596   -8.8008 C   0  0  0  0  0  0  0  0  0  0  0  0
   -8.6248    5.7406   -3.4189 C   0  0  0  0  0  0  0  0  0  0  0  0
   -8.1280   -4.2064   -6.5564 C   0  0  0  0  0  0  0  0  0  0  0  0
   -9.1721    6.7676   -2.6859 C   0  0  0  0  0  0  0  0  0  0  0  0
   -8.6559   -4.7291   -7.7390 C   0  0  0  0  0  0  0  0  0  0  0  0
   -2.1873    0.6849   -8.5395 C   0  0  0  0  0  0  0  0  0  0  0  0
   -1.8147    2.8102   -5.9481 C   0  0  0  0  0  0  0  0  0  0  0  0
   -0.9264    1.5698   -8.7109 C   0  0  0  0  0  0  0  0  0  0  0  0
   -0.4820    3.0143   -6.4773 C   0  0  0  0  0  0  0  0  0  0  0  0
   -3.9055    7.7075  -12.4051 C   0  0  0  0  0  0  0  0  0  0  0  0
  -10.1662   -2.0687  -11.6790 C   0  0  0  0  0  0  0  0  0  0  0  0
   -0.0951    1.9308   -7.4630 C   0  0  0  0  0  0  0  0  0  0  0  0
   -0.9944    9.1041  -10.3443 C   0  0  0  0  0  0  0  0  0  0  0  0
  -13.7274    1.3127   -8.7790 C   0  0  0  0  0  0  0  0  0  0  0  0
  -10.5582    9.2224   -1.8420 C   0  0  0  0  0  0  0  0  0  0  0  0
  -10.6203   -4.8667   -9.9953 C   0  0  0  0  0  0  0  0  0  0  0  0
   -9.9466    5.3522   -0.9074 C   0  0  0  0  0  0  0  0  0  0  0  0
   -9.3336   -6.7259   -6.6808 C   0  0  0  0  0  0  0  0  0  0  0  0
  1 39  1  0  0  0  0
  1 59  1  0  0  0  0
  2 40  1  0  0  0  0
  2 60  1  0  0  0  0
  3 41  1  0  0  0  0
  3 62  1  0  0  0  0
  4 42  1  0  0  0  0
  4 63  1  0  0  0  0
  5 43  1  0  0  0  0
  5 55  1  0  0  0  0
  6 44  1  0  0  0  0
  6 56  1  0  0  0  0
  7 43  2  0  0  0  0
  8 44  2  0  0  0  0
  9 49  1  0  0  0  0
  9 64  1  0  0  0  0
 10 50  1  0  0  0  0
 10 65  1  0  0  0  0
 11 53  1  0  0  0  0
 11 66  1  0  0  0  0
 12 54  1  0  0  0  0
 12 67  1  0  0  0  0
 13 15  1  0  0  0  0
 13 17  1  0  0  0  0
 13 19  1  0  0  0  0
 13 25  1  0  0  0  0
 14 16  1  0  0  0  0
 14 18  1  0  0  0  0
 14 20  1  0  0  0  0
 14 26  1  0  0  0  0
 15 21  1  0  0  0  0
 15 27  1  0  0  0  0
 16 22  1  0  0  0  0
 16 28  1  0  0  0  0
 17 23  1  0  0  0  0
 18 24  1  0  0  0  0
 19 31  1  0  0  0  0
 20 32  1  0  0  0  0
 21 29  1  0  0  0  0
 21 33  2  0  0  0  0
 22 30  1  0  0  0  0
 22 34  2  0  0  0  0
 23 29  1  0  0  0  0
 24 30  1  0  0  0  0
 27 35  1  0  0  0  0
 28 36  1  0  0  0  0
 29 37  2  0  0  0  0
 30 38  2  0  0  0  0
 31 43  1  0  0  0  0
 32 44  1  0  0  0  0
 33 39  1  0  0  0  0
 34 40  1  0  0  0  0
 35 45  2  0  0  0  0
 35 47  1  0  0  0  0
 36 46  2  0  0  0  0
 36 48  1  0  0  0  0
 37 41  1  0  0  0  0
 38 42  1  0  0  0  0
 39 41  2  0  0  0  0
 40 42  2  0  0  0  0
 45 49  1  0  0  0  0
 46 50  1  0  0  0  0
 47 51  2  0  0  0  0
 48 52  2  0  0  0  0
 49 53  2  0  0  0  0
 50 54  2  0  0  0  0
 51 53  1  0  0  0  0
 52 54  1  0  0  0  0
 55 57  1  0  0  0  0
 56 58  1  0  0  0  0
 57 61  1  0  0  0  0
 58 61  1  0  0  0  0
M  CHG  2  13   1  14   1
M  END
