
 OpenBabel10141417493D

 34 37  0  0  1  0  0  0  0  0999 V2000
   -0.2831   -0.8821    1.1627 C   0  0  0  0  0  0  0  0  0  0  0  0
   -0.4790   -0.6209    2.4980 C   0  0  0  0  0  0  0  0  0  0  0  0
    0.1762    0.3429    3.1747 N   0  0  0  0  0  0  0  0  0  0  0  0
    1.0657    1.0722    2.4712 C   0  0  0  0  0  0  0  0  0  0  0  0
    1.3444    0.8747    1.1593 N   0  0  0  0  0  0  0  0  0  0  0  0
    0.6593   -0.1026    0.5384 C   0  0  0  0  0  0  0  0  0  0  0  0
    1.7323    2.2494    3.1646 C   0  0  0  0  0  0  0  0  0  0  0  0
    2.7029    2.9129    2.3018 N   0  0  0  0  0  0  0  0  0  0  0  0
    3.7479    3.6755    2.7757 C   0  0  0  0  0  0  0  0  0  0  0  0
    4.6143    4.3044    1.7461 C   0  0  0  0  0  0  0  0  0  0  0  0
    3.9525    3.8722    3.9559 O   0  0  0  0  0  0  0  0  0  0  0  0
    4.8815    3.8045    0.4806 C   0  0  0  0  0  0  0  0  0  0  0  0
    5.5287    4.5630   -0.4299 N   0  0  0  0  0  0  0  0  0  0  0  0
    6.0492    5.7532   -0.0815 C   0  0  0  0  0  0  0  0  0  0  0  0
    5.9348    6.2335    1.1632 N   0  0  0  0  0  0  0  0  0  0  0  0
    5.2230    5.5053    2.0511 C   0  0  0  0  0  0  0  0  0  0  0  0
    6.7446    6.5073   -1.0410 N   0  0  0  0  0  0  0  0  0  0  0  0
    4.4697    2.5113    0.0993 N   0  0  0  0  0  0  0  0  0  0  0  0
    4.9161    1.9989   -1.1973 C   0  0  0  0  0  0  0  0  0  0  0  0
    5.7747    0.7434   -1.1102 C   0  0  0  0  0  0  0  0  0  0  0  0
    7.2423    5.7270   -2.1804 C   0  0  0  0  0  0  0  0  0  0  0  0
    7.8720    7.2815   -0.4553 C   0  0  1  0  0  0  0  0  0  0  0  0
    9.1385    6.7005   -1.1080 C   0  0  0  0  0  0  0  0  0  0  0  0
    8.6891    5.4355   -1.8192 C   0  0  0  0  0  0  0  0  0  0  0  0
    7.1761    0.8182   -1.1862 C   0  0  0  0  0  0  0  0  0  0  0  0
    7.9574   -0.3468   -1.2794 C   0  0  0  0  0  0  0  0  0  0  0  0
    7.3603   -1.6144   -1.2722 C   0  0  0  0  0  0  0  0  0  0  0  0
    5.9716   -1.6965   -1.1411 C   0  0  0  0  0  0  0  0  0  0  0  0
    5.1883   -0.5314   -1.0701 C   0  0  0  0  0  0  0  0  0  0  0  0
    8.1866   -2.7061   -1.3602 O   0  0  0  0  0  0  0  0  0  0  0  0
    7.6297   -3.8672   -1.9654 C   0  0  0  0  0  0  0  0  0  0  0  0
    9.6688   -0.1779   -1.4835 Cl  0  0  0  0  0  0  0  0  0  0  0  0
    7.7277    8.7848   -0.7526 C   0  0  0  0  0  0  0  0  0  0  0  0
    7.7336    9.0523   -2.1564 O   0  0  0  0  0  0  0  0  0  0  0  0
  1  2  2  0  0  0  0
  1  6  1  0  0  0  0
  2  3  1  0  0  0  0
  3  4  2  0  0  0  0
  4  5  1  0  0  0  0
  4  7  1  0  0  0  0
  5  6  2  0  0  0  0
  7  8  1  0  0  0  0
  8  9  1  0  0  0  0
  9 10  1  0  0  0  0
  9 11  2  0  0  0  0
 10 12  2  0  0  0  0
 10 16  1  0  0  0  0
 12 13  1  0  0  0  0
 12 18  1  0  0  0  0
 13 14  2  0  0  0  0
 14 15  1  0  0  0  0
 14 17  1  0  0  0  0
 15 16  2  0  0  0  0
 17 21  1  0  0  0  0
 17 22  1  0  0  0  0
 18 19  1  0  0  0  0
 19 20  1  0  0  0  0
 20 25  2  0  0  0  0
 20 29  1  0  0  0  0
 21 24  1  0  0  0  0
 22 23  1  0  0  0  0
 22 33  1  6  0  0  0
 23 24  1  0  0  0  0
 25 26  1  0  0  0  0
 26 27  2  0  0  0  0
 26 32  1  0  0  0  0
 27 28  1  0  0  0  0
 27 30  1  0  0  0  0
 28 29  2  0  0  0  0
 30 31  1  0  0  0  0
 33 34  1  0  0  0  0
M  END
