AZQ
 OpenBabel10141418003D

 22 24  0  0  0  0  0  0  0  0999 V2000
    1.5318   -0.0906   -0.2977 C   0  0  0  0  0  0  0  0  0  0  0  0
    1.8200    1.0368   -1.2499 C   0  0  1  0  0  0  0  0  0  0  0  0
    0.6534    1.9645   -1.0418 C   0  0  0  0  0  0  0  0  0  0  0  0
    0.1439    1.6763    0.2368 N   0  0  0  0  0  0  0  0  0  0  0  0
   -0.5886    2.4298    1.1870 C   0  0  0  0  0  0  0  0  0  0  0  0
   -1.0672    1.8407    2.2592 N   0  0  0  0  0  0  0  0  0  0  0  0
   -0.8870    0.4607    2.4559 C   0  0  0  0  0  0  0  0  0  0  0  0
   -1.5372   -0.1622    3.5240 C   0  0  0  0  0  0  0  0  0  0  0  0
   -1.4186   -1.5413    3.7273 C   0  0  0  0  0  0  0  0  0  0  0  0
   -0.6376   -2.3156    2.8643 C   0  0  0  0  0  0  0  0  0  0  0  0
    0.0595   -1.6836    1.8262 C   0  0  0  0  0  0  0  0  0  0  0  0
   -0.0676   -0.3053    1.6218 C   0  0  0  0  0  0  0  0  0  0  0  0
    0.5788    0.3828    0.5900 N   0  0  0  0  0  0  0  0  0  0  0  0
    2.1015   -1.1752   -0.3273 O   0  0  0  0  0  0  0  0  0  0  0  0
    3.1095    1.7416   -0.8190 C   0  0  0  0  0  0  0  0  0  0  0  0
    3.4828    2.8738   -1.7367 C   0  0  0  0  0  0  0  0  0  0  0  0
    3.5724    4.1527   -1.3487 C   0  0  0  0  0  0  0  0  0  0  0  0
    0.2474    2.7503   -1.8900 O   0  0  0  0  0  0  0  0  0  0  0  0
   -0.8207    3.7992    1.0506 N   0  0  0  0  0  0  0  0  0  0  0  0
   -1.9235    4.4045    1.7965 C   0  0  0  0  0  0  0  0  0  0  0  0
   -0.2177    4.6695    0.0563 C   0  0  0  0  0  0  0  0  0  0  0  0
   -0.5383   -3.8051    3.0196 C   0  0  0  0  0  0  0  0  0  0  0  0
  1  2  1  0  0  0  0
  1 13  1  0  0  0  0
  1 14  2  0  0  0  0
  2  3  1  0  0  0  0
  2 15  1  1  0  0  0
  3  4  1  0  0  0  0
  3 18  2  0  0  0  0
  4  5  1  0  0  0  0
  4 13  1  0  0  0  0
  5  6  2  0  0  0  0
  5 19  1  0  0  0  0
  6  7  1  0  0  0  0
  7  8  2  0  0  0  0
  7 12  1  0  0  0  0
  8  9  1  0  0  0  0
  9 10  2  0  0  0  0
 10 11  1  0  0  0  0
 10 22  1  0  0  0  0
 11 12  2  0  0  0  0
 12 13  1  0  0  0  0
 15 16  1  0  0  0  0
 16 17  2  0  0  0  0
 19 20  1  0  0  0  0
 19 21  1  0  0  0  0
M  END
