719
 OpenBabel10141417493D

 22 25  0  0  0  0  0  0  0  0999 V2000
    0.7913    1.1925   -0.3111 N   0  0  0  0  0  0  0  0  0  0  0  0
   -3.0893   -0.6721    2.1196 N   0  0  0  0  0  0  0  0  0  0  0  0
   -0.8276   -1.2439    0.2753 C   0  0  0  0  0  0  0  0  0  0  0  0
    0.6172   -1.3538   -0.1953 C   0  0  0  0  0  0  0  0  0  0  0  0
   -1.4477    0.0161   -0.3183 C   0  0  0  0  0  0  0  0  0  0  0  0
    1.4012   -0.0700    0.1534 C   0  0  0  0  0  0  0  0  0  0  0  0
   -0.6299    1.2518    0.0863 C   0  0  0  0  0  0  0  0  0  0  0  0
   -1.4701   -2.1155    1.0967 C   0  0  0  0  0  0  0  0  0  0  0  0
   -0.8087   -3.3788    1.5095 C   0  0  0  0  0  0  0  0  0  0  0  0
   -2.8834   -1.8710    1.5041 C   0  0  0  0  0  0  0  0  0  0  0  0
   -1.2810   -4.5911    0.9760 C   0  0  0  0  0  0  0  0  0  0  0  0
   -2.4479   -4.5802    0.0190 C   0  0  0  0  0  0  0  0  0  0  0  0
   -3.7575   -4.1899    0.7140 C   0  0  0  0  0  0  0  0  0  0  0  0
   -3.9110   -2.7994    1.2955 C   0  0  0  0  0  0  0  0  0  0  0  0
    0.9618    1.3869   -1.7487 C   0  0  0  0  0  0  0  0  0  0  0  0
    0.2266   -3.3900    2.4527 C   0  0  0  0  0  0  0  0  0  0  0  0
   -0.6884   -5.7981    1.3723 C   0  0  0  0  0  0  0  0  0  0  0  0
   -5.2022   -2.4241    1.7104 C   0  0  0  0  0  0  0  0  0  0  0  0
    0.8122   -4.5971    2.8381 C   0  0  0  0  0  0  0  0  0  0  0  0
    0.3570   -5.7981    2.2964 C   0  0  0  0  0  0  0  0  0  0  0  0
   -5.4264   -1.1881    2.3053 C   0  0  0  0  0  0  0  0  0  0  0  0
   -4.3439   -0.3571    2.4955 C   0  0  0  0  0  0  0  0  0  0  0  0
  1  6  1  0  0  0  0
  1  7  1  0  0  0  0
  1 15  1  0  0  0  0
  2 10  1  0  0  0  0
  2 22  2  0  0  0  0
  3  4  1  0  0  0  0
  3  5  1  0  0  0  0
  3  8  2  0  0  0  0
  4  6  1  0  0  0  0
  5  7  1  0  0  0  0
  8  9  1  0  0  0  0
  8 10  1  0  0  0  0
  9 11  1  0  0  0  0
  9 16  2  0  0  0  0
 10 14  2  0  0  0  0
 11 12  1  0  0  0  0
 11 17  2  0  0  0  0
 12 13  1  0  0  0  0
 13 14  1  0  0  0  0
 14 18  1  0  0  0  0
 16 19  1  0  0  0  0
 17 20  1  0  0  0  0
 18 21  2  0  0  0  0
 19 20  2  0  0  0  0
 21 22  1  0  0  0  0
M  END
