548
 OpenBabel10141418363D

 13 12  0  0  0  0  0  0  0  0999 V2000
    7.1752   -3.4277   -5.0351 O   0  0  0  0  0  0  0  0  0  0  0  0
    9.7992   -4.0158   -2.6974 O   0  0  0  0  0  0  0  0  0  0  0  0
    5.0438   -2.8383   -5.1537 O   0  0  0  0  0  0  0  0  0  0  0  0
   11.0721   -2.2040   -2.9807 O   0  0  0  0  0  0  0  0  0  0  0  0
    6.7569   -1.6208   -0.1965 C   0  0  0  0  0  0  0  0  0  0  0  0
    5.3843   -2.0952   -0.7164 C   0  0  0  0  0  0  0  0  0  0  0  0
    7.9396   -2.5134   -0.5642 C   0  0  0  0  0  0  0  0  0  0  0  0
    5.1835   -2.1006   -2.2512 C   0  0  0  0  0  0  0  0  0  0  0  0
    9.3002   -1.9597   -0.1820 C   0  0  0  0  0  0  0  0  0  0  0  0
    6.0748   -3.0841   -2.9910 C   0  0  0  0  0  0  0  0  0  0  0  0
   10.4328   -2.8488   -0.7115 C   0  0  0  0  0  0  0  0  0  0  0  0
    5.9905   -3.1213   -4.4727 C   0  0  0  0  0  0  0  0  0  0  0  0
   10.4937   -2.9622   -2.2201 C   0  0  0  0  0  0  0  0  0  0  0  0
  1 12  1  0  0  0  0
  2 13  1  0  0  0  0
  3 12  2  0  0  0  0
  4 13  2  0  0  0  0
  5  6  1  0  0  0  0
  5  7  1  0  0  0  0
  6  8  1  0  0  0  0
  7  9  1  0  0  0  0
  8 10  1  0  0  0  0
  9 11  1  0  0  0  0
 10 12  1  0  0  0  0
 11 13  1  0  0  0  0
M  END
