972
 OpenBabel10141417513D

 27 30  0  0  1  0  0  0  0  0999 V2000
    6.8190    2.4504   -6.2782 Cl  0  0  0  0  0  0  0  0  0  0  0  0
    8.8516   -5.3552   -0.5562 O   0  0  0  0  0  0  0  0  0  0  0  0
   12.7512   -0.8606    0.4911 N   0  0  0  0  0  0  0  0  0  0  0  0
    9.1628   -3.0669   -0.7508 N   0  0  0  0  0  0  0  0  0  0  0  0
    8.6211   -1.8080   -0.7777 N   0  0  0  0  0  0  0  0  0  0  0  0
   10.6421   -3.1432   -0.6632 C   0  0  3  0  0  0  0  0  0  0  0  0
   11.3212   -2.4655   -1.8639 C   0  0  0  0  0  0  0  0  0  0  0  0
   11.1248   -2.7250    0.7306 C   0  0  0  0  0  0  0  0  0  0  0  0
   11.5657   -0.9657   -1.7398 C   0  0  0  0  0  0  0  0  0  0  0  0
   12.5854   -2.2822    0.8243 C   0  0  0  0  0  0  0  0  0  0  0  0
   12.8207   -0.5980   -0.9501 C   0  0  0  0  0  0  0  0  0  0  0  0
    8.3941   -4.2239   -0.7049 C   0  0  0  0  0  0  0  0  0  0  0  0
   13.9500   -0.3188    1.1391 C   0  0  0  0  0  0  0  0  0  0  0  0
    6.9346   -4.0611   -0.8702 C   0  0  0  0  0  0  0  0  0  0  0  0
    7.3310   -1.6492   -0.8752 C   0  0  0  0  0  0  0  0  0  0  0  0
    6.3941   -2.7873   -0.9820 C   0  0  0  0  0  0  0  0  0  0  0  0
    6.8133   -0.2156   -0.8602 C   0  0  0  0  0  0  0  0  0  0  0  0
    6.1137   -5.1923   -0.9504 C   0  0  0  0  0  0  0  0  0  0  0  0
    5.0152   -2.6388   -1.1890 C   0  0  0  0  0  0  0  0  0  0  0  0
    6.7998    0.4339   -2.2263 C   0  0  0  0  0  0  0  0  0  0  0  0
    4.7382   -5.0429   -1.1551 C   0  0  0  0  0  0  0  0  0  0  0  0
    4.1934   -3.7672   -1.2763 C   0  0  0  0  0  0  0  0  0  0  0  0
    5.6081    0.9108   -2.7882 C   0  0  0  0  0  0  0  0  0  0  0  0
    7.9967    0.6107   -2.9373 C   0  0  0  0  0  0  0  0  0  0  0  0
    5.6147    1.5310   -4.0420 C   0  0  0  0  0  0  0  0  0  0  0  0
    8.0060    1.2304   -4.1878 C   0  0  0  0  0  0  0  0  0  0  0  0
    6.8128    1.6862   -4.7369 C   0  0  0  0  0  0  0  0  0  0  0  0
  1 27  1  0  0  0  0
  2 12  2  0  0  0  0
  3 10  1  0  0  0  0
  3 11  1  0  0  0  0
  3 13  1  0  0  0  0
  4  5  1  0  0  0  0
  4  6  1  0  0  0  0
  4 12  1  0  0  0  0
  5 15  2  0  0  0  0
  6  7  1  0  0  0  0
  6  8  1  0  0  0  0
  7  9  1  0  0  0  0
  8 10  1  0  0  0  0
  9 11  1  0  0  0  0
 12 14  1  0  0  0  0
 14 16  1  0  0  0  0
 14 18  2  0  0  0  0
 15 16  1  0  0  0  0
 15 17  1  0  0  0  0
 16 19  2  0  0  0  0
 17 20  1  0  0  0  0
 18 21  1  0  0  0  0
 19 22  1  0  0  0  0
 20 23  2  0  0  0  0
 20 24  1  0  0  0  0
 21 22  2  0  0  0  0
 23 25  1  0  0  0  0
 24 26  2  0  0  0  0
 25 27  2  0  0  0  0
 26 27  1  0  0  0  0
M  END
