
 OpenBabel10141417483D

 26 28  0  0  0  0  0  0  0  0999 V2000
   -3.6428   -4.0040    0.1278 C   0  0  0  0  0  0  0  0  0  0  0  0
   -4.9231   -4.5640   -0.0213 C   0  0  0  0  0  0  0  0  0  0  0  0
   -5.3532   -5.5042    0.9295 C   0  0  0  0  0  0  0  0  0  0  0  0
   -4.5289   -5.8745    1.9948 C   0  0  0  0  0  0  0  0  0  0  0  0
   -3.2634   -5.3096    2.1285 C   0  0  0  0  0  0  0  0  0  0  0  0
   -2.8191   -4.3769    1.1943 C   0  0  0  0  0  0  0  0  0  0  0  0
  -10.9176   -1.7736   -0.0194 N   0  0  0  0  0  0  0  0  0  0  0  0
   -9.7760   -1.4342   -0.8878 C   0  0  1  0  0  0  0  0  0  0  0  0
  -10.1815   -2.5925    0.7874 C   0  0  0  0  0  0  0  0  0  0  0  0
   -8.8505   -2.0895    0.1747 C   0  0  1  0  0  0  0  0  0  0  0  0
  -12.1365   -2.2399   -0.6735 C   0  0  2  0  0  0  0  0  0  0  0  0
  -10.0691   -2.3588   -2.4506 S   0  0  0  0  0  0  0  0  0  0  0  0
  -11.7171   -3.0339   -1.9314 C   0  0  0  0  0  0  0  0  0  0  0  0
   -7.9173   -3.1589   -0.2658 N   0  0  0  0  0  0  0  0  0  0  0  0
   -6.6615   -2.8820   -0.7662 C   0  0  0  0  0  0  0  0  0  0  0  0
   -7.2907   -5.0336   -2.7104 N   0  3  0  0  0  0  0  0  0  0  0  0
   -5.8239   -4.1203   -1.1654 C   0  0  2  0  0  0  0  0  0  0  0  0
  -12.9992   -1.0110   -0.9532 C   0  0  0  0  0  0  0  0  0  0  0  0
   -7.8139   -4.8840   -3.7060 N   0  5  0  0  0  0  0  0  0  0  0  0
   -6.7386   -5.2066   -1.6046 N   0  0  0  0  0  0  0  0  0  0  0  0
   -6.2400   -1.7320   -0.8711 O   0  0  0  0  0  0  0  0  0  0  0  0
  -14.3209   -1.2883   -0.9363 O   0  0  0  0  0  0  0  0  0  0  0  0
  -12.6203    0.1276   -1.1786 O   0  0  0  0  0  0  0  0  0  0  0  0
  -12.6808   -2.9301   -3.1206 C   0  0  0  0  0  0  0  0  0  0  0  0
  -11.5269   -4.5264   -1.6050 C   0  0  0  0  0  0  0  0  0  0  0  0
  -10.5203   -3.4929    1.5202 O   0  0  0  0  0  0  0  0  0  0  0  0
  1  2  2  0  0  0  0
  3  2  1  0  0  0  0
  4  3  2  0  0  0  0
  5  6  2  0  0  0  0
  5  4  1  0  0  0  0
  6  1  1  0  0  0  0
  8  7  1  1  0  0  0
  8 12  1  0  0  0  0
  8 10  1  0  0  0  0
  9  7  1  0  0  0  0
  9 26  2  0  0  0  0
 10  9  1  0  0  0  0
 10 14  1  6  0  0  0
 11  7  1  0  0  0  0
 11 18  1  6  0  0  0
 13 11  1  0  0  0  0
 13 12  1  0  0  0  0
 15 14  1  0  0  0  0
 17 20  1  1  0  0  0
 17 15  1  0  0  0  0
 17  2  1  0  0  0  0
 19 16  2  0  0  0  0
 20 16  2  0  0  0  0
 21 15  2  0  0  0  0
 22 18  1  0  0  0  0
 23 18  2  0  0  0  0
 24 13  1  0  0  0  0
 25 13  1  0  0  0  0
M  CHG  2  16   1  19  -1
M  END
