1602
 OpenBabel10141417503D

 32 34  0  0  1  0  0  0  0  0999 V2000
    2.9514   -1.5567    6.8857 S   0  0  0  0  0  0  0  0  0  0  0  0
    4.3111   -4.5673    4.1101 O   0  0  0  0  0  0  0  0  0  0  0  0
    5.6510   -5.2190    8.7105 O   0  0  0  0  0  0  0  0  0  0  0  0
    6.4913   -3.1800    8.0500 O   0  0  0  0  0  0  0  0  0  0  0  0
    3.2641    0.4596    3.0365 O   0  0  0  0  0  0  0  0  0  0  0  0
    6.5570   -4.7191   10.8083 O   0  0  0  0  0  0  0  0  0  0  0  0
    6.6221   -2.8216   11.9357 O   0  0  0  0  0  0  0  0  0  0  0  0
    8.0996   -3.1252   10.2210 O   0  0  0  0  0  0  0  0  0  0  0  0
    4.7621   -3.1745    5.9306 N   0  0  0  0  0  0  0  0  0  0  0  0
    2.8043   -1.6683    3.7624 N   0  0  0  0  0  0  0  0  0  0  0  0
    0.2198   -1.5513    3.3117 N   0  0  0  0  0  0  0  0  0  0  0  0
    4.4211   -1.7582    5.8066 C   0  0  1  0  0  0  0  0  0  0  0  0
    3.2862   -3.0847    7.8930 C   0  0  0  0  0  0  0  0  0  0  0  0
    4.3752   -3.9065    7.1449 C   0  0  2  0  0  0  0  0  0  0  0  0
    4.1620   -1.9896    4.2879 C   0  0  1  0  0  0  0  0  0  0  0  0
    4.4283   -3.4888    4.6522 C   0  0  0  0  0  0  0  0  0  0  0  0
    3.6585   -2.6090    9.3111 C   0  0  0  0  0  0  0  0  0  0  0  0
    1.9836   -3.8863    8.0401 C   0  0  0  0  0  0  0  0  0  0  0  0
    5.6369   -4.0547    7.9900 C   0  0  0  0  0  0  0  0  0  0  0  0
    2.4568   -0.4542    3.1878 C   0  0  0  0  0  0  0  0  0  0  0  0
    0.9409   -0.3392    2.8160 C   0  0  1  0  0  0  0  0  0  0  0  0
    6.8072   -5.3728    9.5628 C   0  0  3  0  0  0  0  0  0  0  0  0
    0.6904   -0.0886    1.3326 C   0  0  0  0  0  0  0  0  0  0  0  0
    7.0858   -6.8622    9.8147 C   0  0  0  0  0  0  0  0  0  0  0  0
    0.5864    1.2227    0.8295 C   0  0  0  0  0  0  0  0  0  0  0  0
    0.5570   -1.1493    0.4212 C   0  0  0  0  0  0  0  0  0  0  0  0
    0.3909    1.4584   -0.5389 C   0  0  0  0  0  0  0  0  0  0  0  0
    0.3276   -0.9132   -0.9386 C   0  0  0  0  0  0  0  0  0  0  0  0
    7.1876   -3.5110   10.8980 C   0  0  0  0  0  0  0  0  0  0  0  0
    0.2601    0.3900   -1.4221 C   0  0  0  0  0  0  0  0  0  0  0  0
    7.4211   -1.7023   12.3363 C   0  0  0  0  0  0  0  0  0  0  0  0
    8.4716   -2.2425   13.2880 C   0  0  0  0  0  0  0  0  0  0  0  0
  1 13  1  0  0  0  0
  2 16  2  0  0  0  0
  3 19  1  0  0  0  0
  3 22  1  0  0  0  0
  4 19  2  0  0  0  0
  5 20  2  0  0  0  0
  6 22  1  0  0  0  0
  6 29  1  0  0  0  0
  7 29  1  0  0  0  0
  7 31  1  0  0  0  0
  8 29  2  0  0  0  0
  9 12  1  0  0  0  0
  9 14  1  0  0  0  0
  9 16  1  0  0  0  0
 10 20  1  0  0  0  0
 12  1  1  1  0  0  0
 12 15  1  0  0  0  0
 13 14  1  0  0  0  0
 13 17  1  0  0  0  0
 13 18  1  0  0  0  0
 14 19  1  1  0  0  0
 15 16  1  0  0  0  0
 15 10  1  1  0  0  0
 21 23  1  6  0  0  0
 21 20  1  0  0  0  0
 21 11  1  0  0  0  0
 22 24  1  0  0  0  0
 23 25  2  0  0  0  0
 23 26  1  0  0  0  0
 25 27  1  0  0  0  0
 26 28  2  0  0  0  0
 27 30  2  0  0  0  0
 28 30  1  0  0  0  0
 31 32  1  0  0  0  0
M  END
