436
 OpenBabel10141417493D

 27 29  0  0  1  0  0  0  0  0999 V2000
   -1.2514    1.8012   -0.0381 S   0  0  0  0  0  0  0  0  0  0  0  0
    4.1771    1.5419   -0.0043 S   0  0  0  0  0  0  0  0  0  0  0  0
    3.3738   -2.9761   -0.1982 F   0  0  0  0  0  0  0  0  0  0  0  0
    4.5622   -1.4344   -1.1439 F   0  0  0  0  0  0  0  0  0  0  0  0
    4.4826   -1.6143    1.0451 F   0  0  0  0  0  0  0  0  0  0  0  0
   -1.1553    2.7170   -1.1522 O   0  0  0  0  0  0  0  0  0  0  0  0
   -1.4863    2.2452    1.3168 O   0  0  0  0  0  0  0  0  0  0  0  0
    3.9439    2.8588    0.5475 O   0  0  0  0  0  0  0  0  0  0  0  0
    5.2257    0.6908    0.4819 O   0  0  0  0  0  0  0  0  0  0  0  0
   -2.4351    0.6856   -0.4376 N   0  0  0  0  0  0  0  0  0  0  0  0
   -1.1525   -1.2347   -0.1359 N   0  0  0  0  0  0  0  0  0  0  0  0
    4.4768    1.7741   -1.6359 N   0  0  0  0  0  0  0  0  0  0  0  0
   -2.3305   -0.5292    0.3442 C   0  0  3  0  0  0  0  0  0  0  0  0
    0.2064    0.8150   -0.0200 C   0  0  0  0  0  0  0  0  0  0  0  0
    0.0753   -0.5705   -0.0287 C   0  0  0  0  0  0  0  0  0  0  0  0
   -3.5978   -1.3841    0.1177 C   0  0  0  0  0  0  0  0  0  0  0  0
    1.4566    1.4421   -0.0151 C   0  0  0  0  0  0  0  0  0  0  0  0
    1.2533   -1.3261   -0.0873 C   0  0  0  0  0  0  0  0  0  0  0  0
    2.6264    0.6650   -0.0383 C   0  0  0  0  0  0  0  0  0  0  0  0
    2.5410   -0.7388   -0.0641 C   0  0  0  0  0  0  0  0  0  0  0  0
   -3.6764   -2.5837    1.0386 C   0  0  0  0  0  0  0  0  0  0  0  0
    3.7386   -1.6615   -0.0874 C   0  0  0  0  0  0  0  0  0  0  0  0
   -4.2464   -2.4591    2.3133 C   0  0  0  0  0  0  0  0  0  0  0  0
   -3.1602   -3.8266    0.6437 C   0  0  0  0  0  0  0  0  0  0  0  0
   -4.2989   -3.5563    3.1746 C   0  0  0  0  0  0  0  0  0  0  0  0
   -3.2041   -4.9189    1.5116 C   0  0  0  0  0  0  0  0  0  0  0  0
   -3.7746   -4.7840    2.7755 C   0  0  0  0  0  0  0  0  0  0  0  0
  1  6  2  0  0  0  0
  1  7  2  0  0  0  0
  1 10  1  0  0  0  0
  1 14  1  0  0  0  0
  2  8  2  0  0  0  0
  2  9  2  0  0  0  0
  2 12  1  0  0  0  0
  2 19  1  0  0  0  0
  3 22  1  0  0  0  0
  4 22  1  0  0  0  0
  5 22  1  0  0  0  0
 10 13  1  0  0  0  0
 11 13  1  0  0  0  0
 11 15  1  0  0  0  0
 13 16  1  0  0  0  0
 14 15  2  0  0  0  0
 14 17  1  0  0  0  0
 15 18  1  0  0  0  0
 16 21  1  0  0  0  0
 17 19  2  0  0  0  0
 18 20  2  0  0  0  0
 19 20  1  0  0  0  0
 20 22  1  0  0  0  0
 21 23  2  0  0  0  0
 21 24  1  0  0  0  0
 23 25  1  0  0  0  0
 24 26  2  0  0  0  0
 25 27  2  0  0  0  0
 26 27  1  0  0  0  0
M  END
