
 OpenBabel10141417503D

  8  8  0  0  0  0  0  0  0  0999 V2000
   -1.4003   -0.0305   -0.0674 C   0  0  0  0  0  0  0  0  0  0  0  0
   -0.7432    1.2074   -0.0431 C   0  0  0  0  0  0  0  0  0  0  0  0
    0.6503    1.2670    0.0050 C   0  0  0  0  0  0  0  0  0  0  0  0
    1.3990    0.0915    0.0200 C   0  0  0  0  0  0  0  0  0  0  0  0
    0.7560   -1.1445   -0.0172 C   0  0  0  0  0  0  0  0  0  0  0  0
   -0.6376   -1.2063   -0.0656 C   0  0  0  0  0  0  0  0  0  0  0  0
   -2.9010   -0.0941   -0.1553 C   0  0  0  0  0  0  0  0  0  0  0  0
   -3.3260   -0.0531   -1.5109 O   0  0  0  0  0  0  0  0  0  0  0  0
  1  2  1  0  0  0  0
  1  6  2  0  0  0  0
  1  7  1  0  0  0  0
  2  3  2  0  0  0  0
  3  4  1  0  0  0  0
  4  5  2  0  0  0  0
  5  6  1  0  0  0  0
  7  8  1  0  0  0  0
M  END
