562
 OpenBabel10141417503D

 26 28  0  0  0  0  0  0  0  0999 V2000
    0.6581    0.4994    0.3648 Cl  0  0  0  0  0  0  0  0  0  0  0  0
    6.8042   -0.6263   -0.0483 S   0  0  0  0  0  0  0  0  0  0  0  0
    1.7207   -2.6018    0.0010 S   0  0  0  0  0  0  0  0  0  0  0  0
    7.4741    4.0178    1.8742 S   0  0  0  0  0  0  0  0  0  0  0  0
    6.9666   -1.1623   -1.3849 O   0  0  0  0  0  0  0  0  0  0  0  0
    7.1980   -1.3958    1.1158 O   0  0  0  0  0  0  0  0  0  0  0  0
    0.7373   -2.3352   -1.0236 O   0  0  0  0  0  0  0  0  0  0  0  0
    2.4989   -3.8164    0.0142 O   0  0  0  0  0  0  0  0  0  0  0  0
    5.5060    2.0171    0.3569 N   0  0  0  0  0  0  0  0  0  0  0  0
    7.5378    0.8076    0.0212 N   0  0  0  0  0  0  0  0  0  0  0  0
    0.9205   -2.5842    1.4752 N   0  0  0  0  0  0  0  0  0  0  0  0
    5.0695   -0.3594    0.1351 C   0  0  0  0  0  0  0  0  0  0  0  0
    4.6228    0.9408    0.3230 C   0  0  0  0  0  0  0  0  0  0  0  0
    4.1916   -1.4477    0.0544 C   0  0  0  0  0  0  0  0  0  0  0  0
    2.8123   -1.2194    0.1339 C   0  0  0  0  0  0  0  0  0  0  0  0
    6.8683    1.8923    0.2112 C   0  0  0  0  0  0  0  0  0  0  0  0
    3.2417    1.1500    0.3991 C   0  0  0  0  0  0  0  0  0  0  0  0
    2.3327    0.0827    0.2949 C   0  0  0  0  0  0  0  0  0  0  0  0
    7.6846    3.1840    0.2681 C   0  0  0  0  0  0  0  0  0  0  0  0
    8.1632    2.7542    2.9951 C   0  0  0  0  0  0  0  0  0  0  0  0
    9.6060    2.3925    2.7508 C   0  0  0  0  0  0  0  0  0  0  0  0
   10.6333    3.3458    2.8244 C   0  0  0  0  0  0  0  0  0  0  0  0
    9.9501    1.0558    2.4967 C   0  0  0  0  0  0  0  0  0  0  0  0
   11.9649    2.9731    2.6170 C   0  0  0  0  0  0  0  0  0  0  0  0
   11.2802    0.6846    2.2959 C   0  0  0  0  0  0  0  0  0  0  0  0
   12.2873    1.6438    2.3504 C   0  0  0  0  0  0  0  0  0  0  0  0
  1 18  1  0  0  0  0
  2  5  2  0  0  0  0
  2  6  2  0  0  0  0
  2 10  1  0  0  0  0
  2 12  1  0  0  0  0
  3  7  2  0  0  0  0
  3  8  2  0  0  0  0
  3 11  1  0  0  0  0
  3 15  1  0  0  0  0
  4 19  1  0  0  0  0
  4 20  1  0  0  0  0
  9 13  1  0  0  0  0
  9 16  1  0  0  0  0
 10 16  2  0  0  0  0
 12 13  1  0  0  0  0
 12 14  2  0  0  0  0
 13 17  2  0  0  0  0
 14 15  1  0  0  0  0
 15 18  2  0  0  0  0
 16 19  1  0  0  0  0
 17 18  1  0  0  0  0
 20 21  1  0  0  0  0
 21 22  2  0  0  0  0
 21 23  1  0  0  0  0
 22 24  1  0  0  0  0
 23 25  2  0  0  0  0
 24 26  2  0  0  0  0
 25 26  1  0  0  0  0
M  END
