1053
 OpenBabel10141417513D

 23 25  0  0  1  0  0  0  0  0999 V2000
   -2.0070    0.9933   -0.3082 S   0  0  0  0  0  0  0  0  0  0  0  0
    1.9038    1.8666    0.8074 O   0  0  0  0  0  0  0  0  0  0  0  0
    0.1998    3.1473   -3.7754 O   0  0  0  0  0  0  0  0  0  0  0  0
   -0.2292    0.9646   -3.6433 O   0  0  0  0  0  0  0  0  0  0  0  0
   -0.0446   -2.2231    2.7197 O   0  0  0  0  0  0  0  0  0  0  0  0
    0.5642    1.0257   -0.9185 N   0  0  0  0  0  0  0  0  0  0  0  0
   -0.3888   -0.0715    2.0647 N   0  0  0  0  0  0  0  0  0  0  0  0
   -0.4468    0.0366   -0.5175 C   0  0  1  0  0  0  0  0  0  0  0  0
   -1.2855    2.5949   -0.9130 C   0  0  0  0  0  0  0  0  0  0  0  0
    0.0776    2.2489   -1.5576 C   0  0  2  0  0  0  0  0  0  0  0  0
    0.3693   -0.2054    0.7806 C   0  0  1  0  0  0  0  0  0  0  0  0
    1.1664    1.0430    0.3101 C   0  0  0  0  0  0  0  0  0  0  0  0
   -2.3292    3.2222   -1.8457 C   0  0  0  0  0  0  0  0  0  0  0  0
   -1.0864    3.5343    0.2894 C   0  0  0  0  0  0  0  0  0  0  0  0
    0.0047    2.0141   -3.0652 C   0  0  0  0  0  0  0  0  0  0  0  0
   -0.5477   -1.1198    2.9375 C   0  0  0  0  0  0  0  0  0  0  0  0
   -1.3718   -0.8846    4.1964 C   0  0  0  0  0  0  0  0  0  0  0  0
   -1.9349    0.5000    4.4207 C   0  0  0  0  0  0  0  0  0  0  0  0
   -3.2012    0.8424    3.9249 C   0  0  0  0  0  0  0  0  0  0  0  0
   -1.2049    1.4591    5.1374 C   0  0  0  0  0  0  0  0  0  0  0  0
   -3.7325    2.1125    4.1573 C   0  0  0  0  0  0  0  0  0  0  0  0
   -1.7394    2.7282    5.3687 C   0  0  0  0  0  0  0  0  0  0  0  0
   -3.0035    3.0536    4.8815 C   0  0  0  0  0  0  0  0  0  0  0  0
  1  9  1  0  0  0  0
  2 12  2  0  0  0  0
  3 15  1  0  0  0  0
  4 15  2  0  0  0  0
  5 16  2  0  0  0  0
  6  8  1  0  0  0  0
  6 10  1  0  0  0  0
  6 12  1  0  0  0  0
  7 16  1  0  0  0  0
  8  1  1  1  0  0  0
  8 11  1  0  0  0  0
  9 10  1  0  0  0  0
  9 13  1  0  0  0  0
  9 14  1  0  0  0  0
 10 15  1  6  0  0  0
 11 12  1  0  0  0  0
 11  7  1  1  0  0  0
 16 17  1  0  0  0  0
 17 18  1  0  0  0  0
 18 19  2  0  0  0  0
 18 20  1  0  0  0  0
 19 21  1  0  0  0  0
 20 22  2  0  0  0  0
 21 23  2  0  0  0  0
 22 23  1  0  0  0  0
M  END
