
 OpenBabel10141417503D

 27 29  0  0  1  0  0  0  0  0999 V2000
   13.8175   -1.3501    0.3674 Cl  0  0  0  0  0  0  0  0  0  0  0  0
   10.5161    1.7824   -4.7101 O   0  0  0  0  0  0  0  0  0  0  0  0
    9.8809    3.6970   -7.4292 O   0  0  0  0  0  0  0  0  0  0  0  0
    9.0189    5.3495   -6.1541 O   0  0  0  0  0  0  0  0  0  0  0  0
    6.7732    1.8340   -4.9478 N   0  0  0  0  0  0  0  0  0  0  0  0
   10.0073    2.7694   -1.6618 N   0  0  0  0  0  0  0  0  0  0  0  0
    9.4724    0.8291   -4.3915 C   0  0  0  0  0  0  0  0  0  0  0  0
    8.5216    1.2988   -3.3130 C   0  0  0  0  0  0  0  0  0  0  0  0
    8.6968    0.3215   -5.5903 C   0  0  0  0  0  0  0  0  0  0  0  0
    7.0487    1.2275   -3.6355 C   0  0  0  0  0  0  0  0  0  0  0  0
    7.7519    1.4065   -5.9457 C   0  0  0  0  0  0  0  0  0  0  0  0
    6.7106    3.3156   -4.8811 C   0  0  0  0  0  0  0  0  0  0  0  0
    6.4111    3.9957   -6.2430 C   0  0  0  0  0  0  0  0  0  0  0  0
   11.4405    2.3340   -3.6819 C   0  0  3  0  0  0  0  0  0  0  0  0
    7.4848    3.8918   -7.3509 C   0  0  0  0  0  0  0  0  0  0  0  0
   12.3200    1.2702   -2.9952 C   0  0  0  0  0  0  0  0  0  0  0  0
   10.8180    3.3124   -2.6126 C   0  0  0  0  0  0  0  0  0  0  0  0
   11.7940    0.0221   -2.6775 C   0  0  0  0  0  0  0  0  0  0  0  0
   13.5737    1.5354   -2.4430 C   0  0  0  0  0  0  0  0  0  0  0  0
    8.8373    4.3569   -6.9337 C   0  0  0  0  0  0  0  0  0  0  0  0
   11.0265    4.6943   -2.6119 C   0  0  0  0  0  0  0  0  0  0  0  0
   12.2046   -0.7727   -1.6381 C   0  0  0  0  0  0  0  0  0  0  0  0
   14.0926    0.6674   -1.4572 C   0  0  0  0  0  0  0  0  0  0  0  0
   10.2838    5.5043   -1.7294 C   0  0  0  0  0  0  0  0  0  0  0  0
   13.3489   -0.4195   -0.9894 C   0  0  0  0  0  0  0  0  0  0  0  0
    9.2019    3.5739   -0.9290 C   0  0  0  0  0  0  0  0  0  0  0  0
    9.3074    4.9426   -0.9168 C   0  0  0  0  0  0  0  0  0  0  0  0
  1 25  1  0  0  0  0
  2  7  1  0  0  0  0
  2 14  1  0  0  0  0
  3 20  1  0  0  0  0
  4 20  2  0  0  0  0
  5 10  1  0  0  0  0
  5 11  1  0  0  0  0
  5 12  1  0  0  0  0
  6 17  1  0  0  0  0
  6 26  2  0  0  0  0
  7  8  1  0  0  0  0
  7  9  1  0  0  0  0
  8 10  1  0  0  0  0
  9 11  1  0  0  0  0
 12 13  1  0  0  0  0
 13 15  1  0  0  0  0
 14 16  1  0  0  0  0
 14 17  1  0  0  0  0
 15 20  1  0  0  0  0
 16 18  2  0  0  0  0
 16 19  1  0  0  0  0
 17 21  2  0  0  0  0
 18 22  1  0  0  0  0
 19 23  2  0  0  0  0
 21 24  1  0  0  0  0
 22 25  2  0  0  0  0
 23 25  1  0  0  0  0
 24 27  2  0  0  0  0
 26 27  1  0  0  0  0
M  END
