
 OpenBabel10141417483D

 10 10  0  0  0  0  0  0  0  0999 V2000
    1.2527   -0.4300   -0.0261 C   0  0  0  0  0  0  0  0  0  0  0  0
    2.6660   -0.1132    0.1458 N   0  0  0  0  0  0  0  0  0  0  0  0
    2.8329    1.1306    0.9130 C   0  0  0  0  0  0  0  0  0  0  0  0
    4.3167    1.4759    1.0807 C   0  0  0  0  0  0  0  0  0  0  0  0
    4.5039    2.7335    1.8934 C   0  0  0  0  0  0  0  0  0  0  0  0
    4.6254    2.6708    3.2809 C   0  0  0  0  0  0  0  0  0  0  0  0
    4.8013    3.8544    3.9949 C   0  0  0  0  0  0  0  0  0  0  0  0
    4.8485    5.0618    3.3121 C   0  0  0  0  0  0  0  0  0  0  0  0
    4.7119    5.0378    1.9347 C   0  0  0  0  0  0  0  0  0  0  0  0
    4.5356    3.9062    1.2152 N   0  0  0  0  0  0  0  0  0  0  0  0
  1  2  1  0  0  0  0
  2  3  1  0  0  0  0
  3  4  1  0  0  0  0
  4  5  1  0  0  0  0
  5  6  2  0  0  0  0
  5 10  1  0  0  0  0
  6  7  1  0  0  0  0
  7  8  2  0  0  0  0
  8  9  1  0  0  0  0
  9 10  2  0  0  0  0
M  END
