307
 OpenBabel10141417483D

 26 28  0  0  0  0  0  0  0  0999 V2000
    1.7823   -0.0644    4.7547 O   0  0  0  0  0  0  0  0  0  0  0  0
    1.5549    1.6089    6.2241 O   0  0  0  0  0  0  0  0  0  0  0  0
    5.5580    9.2731    1.7246 C   0  0  0  0  0  0  0  0  0  0  0  0
    3.1407   10.2392    0.1170 C   0  0  0  0  0  0  0  0  0  0  0  0
    5.4185   10.6972    1.1405 C   0  0  0  0  0  0  0  0  0  0  0  0
    3.9671   11.1388    1.0627 C   0  0  0  0  0  0  0  0  0  0  0  0
    4.5487    8.3037    1.0939 C   0  0  0  0  0  0  0  0  0  0  0  0
    3.4388    8.7499    0.3435 C   0  0  0  0  0  0  0  0  0  0  0  0
    7.0175    8.8344    1.4552 C   0  0  0  0  0  0  0  0  0  0  0  0
    5.3358    9.3083    3.2523 C   0  0  0  0  0  0  0  0  0  0  0  0
    1.6536   10.5706    0.3868 C   0  0  0  0  0  0  0  0  0  0  0  0
    3.4596   10.5944   -1.3526 C   0  0  0  0  0  0  0  0  0  0  0  0
    4.7163    6.9124    1.2794 C   0  0  0  0  0  0  0  0  0  0  0  0
    2.5991    7.7839   -0.2575 C   0  0  0  0  0  0  0  0  0  0  0  0
    3.8595    5.9630    0.6964 C   0  0  0  0  0  0  0  0  0  0  0  0
    2.8015    6.4029   -0.1073 C   0  0  0  0  0  0  0  0  0  0  0  0
    4.1478    4.5205    0.9028 C   0  0  0  0  0  0  0  0  0  0  0  0
    1.8699    5.4445   -0.7966 C   0  0  0  0  0  0  0  0  0  0  0  0
    3.5620    3.6743    1.9809 C   0  0  0  0  0  0  0  0  0  0  0  0
    5.0384    3.9987    0.0355 C   0  0  0  0  0  0  0  0  0  0  0  0
    3.1599    4.2375    3.2043 C   0  0  0  0  0  0  0  0  0  0  0  0
    3.3716    2.2945    1.8014 C   0  0  0  0  0  0  0  0  0  0  0  0
    2.6196    3.4409    4.2265 C   0  0  0  0  0  0  0  0  0  0  0  0
    2.8391    1.4966    2.8156 C   0  0  0  0  0  0  0  0  0  0  0  0
    2.4635    2.0642    4.0351 C   0  0  0  0  0  0  0  0  0  0  0  0
    1.8981    1.2259    5.1178 C   0  0  0  0  0  0  0  0  0  0  0  0
  1 26  1  0  0  0  0
  2 26  2  0  0  0  0
  3  5  1  0  0  0  0
  3  7  1  0  0  0  0
  3  9  1  0  0  0  0
  3 10  1  0  0  0  0
  4  6  1  0  0  0  0
  4  8  1  0  0  0  0
  4 11  1  0  0  0  0
  4 12  1  0  0  0  0
  5  6  1  0  0  0  0
  7  8  2  0  0  0  0
  7 13  1  0  0  0  0
  8 14  1  0  0  0  0
 13 15  2  0  0  0  0
 14 16  2  0  0  0  0
 15 16  1  0  0  0  0
 15 17  1  0  0  0  0
 16 18  1  0  0  0  0
 17 19  1  0  0  0  0
 17 20  2  0  0  0  0
 19 21  2  0  0  0  0
 19 22  1  0  0  0  0
 21 23  1  0  0  0  0
 22 24  2  0  0  0  0
 23 25  2  0  0  0  0
 24 25  1  0  0  0  0
 25 26  1  0  0  0  0
M  END
