121
 OpenBabel10141418123D

 16 17  0  0  1  0  0  0  0  0999 V2000
   -0.8496   -2.4754   -2.3285 S   0  0  0  0  0  0  0  0  0  0  0  0
   -2.9746   -0.3874    1.9462 O   0  0  0  0  0  0  0  0  0  0  0  0
   -2.1781    4.7576   -1.7037 O   0  0  0  0  0  0  0  0  0  0  0  0
   -2.6433    2.6184   -1.1420 O   0  0  0  0  0  0  0  0  0  0  0  0
   -1.7077   -0.1762   -0.0040 N   0  0  0  0  0  0  0  0  0  0  0  0
   -1.1707   -1.7675    1.4834 N   0  0  0  0  0  0  0  0  0  0  0  0
   -0.4062   -0.6787   -0.3926 C   0  0  1  0  0  0  0  0  0  0  0  0
   -0.3866   -2.0436    0.3020 C   0  0  2  0  0  0  0  0  0  0  0  0
   -0.0959   -0.8763   -1.8746 C   0  0  2  0  0  0  0  0  0  0  0  0
   -1.0991   -3.0425   -0.6204 C   0  0  0  0  0  0  0  0  0  0  0  0
   -0.5389    0.2559   -2.8089 C   0  0  0  0  0  0  0  0  0  0  0  0
    0.1163    1.6008   -2.4567 C   0  0  0  0  0  0  0  0  0  0  0  0
   -2.0578   -0.7305    1.2214 C   0  0  0  0  0  0  0  0  0  0  0  0
   -0.3070    2.7640   -3.3674 C   0  0  0  0  0  0  0  0  0  0  0  0
   -1.8035    3.0666   -3.3543 C   0  0  0  0  0  0  0  0  0  0  0  0
   -2.2741    3.4353   -1.9723 C   0  0  0  0  0  0  0  0  0  0  0  0
  1  9  1  0  0  0  0
  1 10  1  0  0  0  0
  2 13  2  0  0  0  0
  3 16  1  0  0  0  0
  4 16  2  0  0  0  0
  5 13  1  0  0  0  0
  6 13  1  0  0  0  0
  7  5  1  6  0  0  0
  7  8  1  0  0  0  0
  7  9  1  0  0  0  0
  8  6  1  1  0  0  0
  8 10  1  0  0  0  0
  9 11  1  6  0  0  0
 11 12  1  0  0  0  0
 12 14  1  0  0  0  0
 14 15  1  0  0  0  0
 15 16  1  0  0  0  0
M  END
