
 OpenBabel10141417493D

 27 29  0  0  0  0  0  0  0  0999 V2000
    2.5273    4.9687    0.0027 C   0  0  0  0  0  0  0  0  0  0  0  0
    6.7967   -6.8412    4.5615 C   0  0  0  0  0  0  0  0  0  0  0  0
   11.0270    0.2669   -2.3418 C   0  0  0  0  0  0  0  0  0  0  0  0
   10.7296   -0.8594   -3.0969 C   0  0  0  0  0  0  0  0  0  0  0  0
   10.3561    0.4807   -1.1390 C   0  0  0  0  0  0  0  0  0  0  0  0
    7.0236    1.6259    1.3439 C   0  0  0  0  0  0  0  0  0  0  0  0
    6.5077    0.4949   -0.7213 C   0  0  0  0  0  0  0  0  0  0  0  0
    9.4992   -2.0109    2.1996 C   0  0  0  0  0  0  0  0  0  0  0  0
    7.2193   -2.1785    1.4350 C   0  0  0  0  0  0  0  0  0  0  0  0
    5.8967    2.4355    1.1791 C   0  0  0  0  0  0  0  0  0  0  0  0
    5.3771    1.3068   -0.8894 C   0  0  0  0  0  0  0  0  0  0  0  0
    9.3337   -3.1810    2.9578 C   0  0  0  0  0  0  0  0  0  0  0  0
    7.0636   -3.3605    2.1588 C   0  0  0  0  0  0  0  0  0  0  0  0
    9.7562   -1.7209   -2.6240 C   0  0  0  0  0  0  0  0  0  0  0  0
    3.8764    4.3874    0.2862 C   0  0  0  0  0  0  0  0  0  0  0  0
    6.7754   -5.3754    4.2570 C   0  0  0  0  0  0  0  0  0  0  0  0
    7.3616    0.6519    0.3899 C   0  0  0  0  0  0  0  0  0  0  0  0
    8.4353   -1.4795    1.4354 C   0  0  0  0  0  0  0  0  0  0  0  0
    5.0907    2.2929    0.0523 C   0  0  0  0  0  0  0  0  0  0  0  0
    8.1012   -3.8335    2.9456 C   0  0  0  0  0  0  0  0  0  0  0  0
    9.3966   -0.4449   -0.7172 C   0  0  0  0  0  0  0  0  0  0  0  0
    8.6292   -0.2034    0.5944 C   0  0  0  0  0  0  0  0  0  0  0  0
    9.0812   -1.5346   -1.4683 N   0  0  0  0  0  0  0  0  0  0  0  0
    4.7685    5.0240    0.8404 O   0  0  0  0  0  0  0  0  0  0  0  0
    5.8283   -4.6347    4.4620 O   0  0  0  0  0  0  0  0  0  0  0  0
    3.9340    3.0734   -0.1619 O   0  0  0  0  0  0  0  0  0  0  0  0
    7.9976   -5.0398    3.6584 O   0  0  0  0  0  0  0  0  0  0  0  0
  4  3  2  0  0  0  0
  5  3  1  0  0  0  0
 10  6  1  0  0  0  0
 11  7  2  0  0  0  0
 12  8  1  0  0  0  0
 13  9  2  0  0  0  0
 14  4  1  0  0  0  0
 15  1  1  0  0  0  0
 16  2  1  0  0  0  0
 17  6  2  0  0  0  0
 17  7  1  0  0  0  0
 18  8  2  0  0  0  0
 18  9  1  0  0  0  0
 19 10  2  0  0  0  0
 19 11  1  0  0  0  0
 20 12  2  0  0  0  0
 20 13  1  0  0  0  0
 21  5  2  0  0  0  0
 22 17  1  0  0  0  0
 22 18  1  0  0  0  0
 22 21  1  0  0  0  0
 23 14  2  0  0  0  0
 23 21  1  0  0  0  0
 24 15  2  0  0  0  0
 25 16  2  0  0  0  0
 26 15  1  0  0  0  0
 26 19  1  0  0  0  0
 27 16  1  0  0  0  0
 27 20  1  0  0  0  0
M  END
