612
 OpenBabel10141417533D

 23 23  0  0  1  0  0  0  0  0999 V2000
    1.4308   -0.5382    0.6047 O   0  0  0  0  0  0  0  0  0  0  0  0
   -0.6945   -0.4554    2.5515 O   0  0  0  0  0  0  0  0  0  0  0  0
    7.2503   -0.5333   -2.3034 O   0  0  0  0  0  0  0  0  0  0  0  0
    7.6944   -4.0449   -3.4830 O   0  0  0  0  0  0  0  0  0  0  0  0
   -3.0299    1.1143    1.9214 N   0  0  0  0  0  0  0  0  0  0  0  0
   -1.6835    1.4574    1.4358 C   0  0  0  0  0  0  0  0  0  0  0  0
   -0.7994    0.2017    1.2782 C   0  0  3  0  0  0  0  0  0  0  0  0
   -3.8969    2.2866    2.1039 C   0  0  0  0  0  0  0  0  0  0  0  0
    0.5959    0.6166    0.7865 C   0  0  0  0  0  0  0  0  0  0  0  0
   -5.2815    1.8306    2.5739 C   0  0  0  0  0  0  0  0  0  0  0  0
   -3.3262    3.3012    3.0981 C   0  0  0  0  0  0  0  0  0  0  0  0
    2.7112   -0.2795    0.1762 C   0  0  0  0  0  0  0  0  0  0  0  0
    5.4049    0.0223   -0.6633 C   0  0  0  0  0  0  0  0  0  0  0  0
    6.8807    0.1174   -1.0637 C   0  0  0  0  0  0  0  0  0  0  0  0
    8.1064   -4.7879   -4.6448 C   0  0  0  0  0  0  0  0  0  0  0  0
    3.2471    0.9792   -0.1095 C   0  0  0  0  0  0  0  0  0  0  0  0
    3.5309   -1.3932    0.0467 C   0  0  0  0  0  0  0  0  0  0  0  0
    7.2956   -1.9674   -2.2665 C   0  0  0  0  0  0  0  0  0  0  0  0
    7.7708   -2.6093   -3.5911 C   0  0  0  0  0  0  0  0  0  0  0  0
    4.5803    1.1316   -0.5277 C   0  0  0  0  0  0  0  0  0  0  0  0
    4.8664   -1.2326   -0.3266 C   0  0  0  0  0  0  0  0  0  0  0  0
    9.6276   -4.8306   -4.7810 C   0  0  0  0  0  0  0  0  0  0  0  0
    7.6177   -6.2340   -4.4912 C   0  0  0  0  0  0  0  0  0  0  0  0
  1  9  1  0  0  0  0
  1 12  1  0  0  0  0
  2  7  1  0  0  0  0
  3 14  1  0  0  0  0
  3 18  1  0  0  0  0
  4 15  1  0  0  0  0
  4 19  1  0  0  0  0
  5  6  1  0  0  0  0
  5  8  1  0  0  0  0
  6  7  1  0  0  0  0
  7  9  1  0  0  0  0
  8 10  1  0  0  0  0
  8 11  1  0  0  0  0
 12 16  2  0  0  0  0
 12 17  1  0  0  0  0
 13 14  1  0  0  0  0
 13 20  2  0  0  0  0
 13 21  1  0  0  0  0
 15 22  1  0  0  0  0
 15 23  1  0  0  0  0
 16 20  1  0  0  0  0
 17 21  2  0  0  0  0
 18 19  1  0  0  0  0
M  END
