
 OpenBabel10141418083D

 28 29  0  0  1  0  0  0  0  0999 V2000
    0.1512   -2.8626    1.0252 C   0  0  0  0  0  0  0  0  0  0  0  0
    1.3517   -3.4071    1.3404 N   0  0  0  0  0  0  0  0  0  0  0  0
    0.0870   -1.8932    0.0052 C   0  0  0  0  0  0  0  0  0  0  0  0
    2.4799   -3.0739    0.6529 C   0  0  0  0  0  0  0  0  0  0  0  0
    1.2069   -1.5848   -0.6989 N   0  0  0  0  0  0  0  0  0  0  0  0
    2.3962   -2.1674   -0.4084 C   0  0  0  0  0  0  0  0  0  0  0  0
   -1.1105   -3.2904    1.6804 C   0  0  0  0  0  0  0  0  0  0  0  0
   -2.3509   -3.2674    1.0879 N   0  0  0  0  0  0  0  0  0  0  0  0
   -1.0500   -3.5995    2.8596 O   0  0  0  0  0  0  0  0  0  0  0  0
   -2.7692   -2.9435   -0.2864 C   0  0  2  0  0  0  0  0  0  0  0  0
   -4.0435   -2.1402   -0.3177 C   0  0  0  0  0  0  0  0  0  0  0  0
   -2.8494   -4.0611   -1.3635 C   0  0  0  0  0  0  0  0  0  0  0  0
   -1.6635   -4.9784   -1.4906 C   0  0  0  0  0  0  0  0  0  0  0  0
   -1.5621   -6.1649   -0.7550 C   0  0  0  0  0  0  0  0  0  0  0  0
   -0.6158   -4.6177   -2.3517 C   0  0  0  0  0  0  0  0  0  0  0  0
   -0.4334   -6.9837   -0.9096 C   0  0  0  0  0  0  0  0  0  0  0  0
    0.4847   -5.4423   -2.5298 C   0  0  0  0  0  0  0  0  0  0  0  0
    0.5804   -6.6280   -1.8091 C   0  0  0  0  0  0  0  0  0  0  0  0
   -4.9885   -2.4760    0.3853 O   0  0  0  0  0  0  0  0  0  0  0  0
   -4.1107   -1.0086   -1.0844 N   0  0  0  0  0  0  0  0  0  0  0  0
   -3.0110   -0.5804   -1.9313 C   0  0  1  0  0  0  0  0  0  0  0  0
   -3.1065   -1.1766   -3.3593 C   0  0  0  0  0  0  0  0  0  0  0  0
   -1.9517   -0.7498   -4.3099 C   0  0  0  0  0  0  0  0  0  0  0  0
   -2.0704   -1.3569   -5.7252 C   0  0  0  0  0  0  0  0  0  0  0  0
   -1.9280    0.7747   -4.4721 C   0  0  0  0  0  0  0  0  0  0  0  0
   -2.9109    1.0399   -2.0044 B   0  0  0  0  0  0  0  0  0  0  0  0
   -2.0993    1.8091   -1.0486 O   0  0  0  0  0  0  0  0  0  0  0  0
   -3.8088    1.7687   -2.9040 O   0  0  0  0  0  0  0  0  0  0  0  0
  1  7  1  0  0  0  0
  2  1  1  0  0  0  0
  3  1  2  0  0  0  0
  4  2  2  0  0  0  0
  5  3  1  0  0  0  0
  6  4  1  0  0  0  0
  6  5  2  0  0  0  0
  7  8  1  0  0  0  0
  7  9  2  0  0  0  0
 10 12  1  6  0  0  0
 10 11  1  0  0  0  0
 10  8  1  0  0  0  0
 11 19  2  0  0  0  0
 11 20  1  0  0  0  0
 12 13  1  0  0  0  0
 14 13  1  0  0  0  0
 15 13  2  0  0  0  0
 16 14  2  0  0  0  0
 17 15  1  0  0  0  0
 18 16  1  0  0  0  0
 18 17  2  0  0  0  0
 21 20  1  1  0  0  0
 21 22  1  0  0  0  0
 21 26  1  0  0  0  0
 22 23  1  0  0  0  0
 23 24  1  0  0  0  0
 23 25  1  0  0  0  0
 26 27  1  0  0  0  0
 26 28  1  0  0  0  0
M  END
