484
 OpenBabel10141417533D

 17 19  0  0  0  0  0  0  0  0999 V2000
    1.2029    0.1028   -0.4070 Br  0  0  0  0  0  0  0  0  0  0  0  0
    3.0169    4.5473    0.1774 N   0  0  0  0  0  0  0  0  0  0  0  0
    3.3399    2.3081   -0.0878 N   0  0  0  0  0  0  0  0  0  0  0  0
    4.8719    3.6801    1.1687 N   0  0  0  0  0  0  0  0  0  0  0  0
    2.7935   -2.5428   -0.0826 N   0  0  0  0  0  0  0  0  0  0  0  0
    5.5458   -2.8133    0.3826 N   0  0  0  0  0  0  0  0  0  0  0  0
    3.7542    5.7290    0.5770 C   0  0  0  0  0  0  0  0  0  0  0  0
    4.8121    5.1272    1.5009 C   0  0  0  0  0  0  0  0  0  0  0  0
    3.8061    3.4648    0.4522 C   0  0  0  0  0  0  0  0  0  0  0  0
    3.8936    1.0150    0.0531 C   0  0  0  0  0  0  0  0  0  0  0  0
    3.0809   -0.1333   -0.0805 C   0  0  0  0  0  0  0  0  0  0  0  0
    3.5853   -1.4423    0.0298 C   0  0  0  0  0  0  0  0  0  0  0  0
    5.2560    0.8116    0.2678 C   0  0  0  0  0  0  0  0  0  0  0  0
    4.9720   -1.5994    0.2660 C   0  0  0  0  0  0  0  0  0  0  0  0
    5.7773   -0.4788    0.3773 C   0  0  0  0  0  0  0  0  0  0  0  0
    3.3824   -3.7504    0.0421 C   0  0  0  0  0  0  0  0  0  0  0  0
    4.7326   -3.8827    0.2689 C   0  0  0  0  0  0  0  0  0  0  0  0
  1 11  1  0  0  0  0
  2  7  1  0  0  0  0
  2  9  1  0  0  0  0
  3  9  1  0  0  0  0
  3 10  1  0  0  0  0
  4  8  1  0  0  0  0
  4  9  2  0  0  0  0
  5 12  2  0  0  0  0
  5 16  1  0  0  0  0
  6 14  2  0  0  0  0
  6 17  1  0  0  0  0
  7  8  1  0  0  0  0
 10 11  2  0  0  0  0
 10 13  1  0  0  0  0
 11 12  1  0  0  0  0
 12 14  1  0  0  0  0
 13 15  2  0  0  0  0
 14 15  1  0  0  0  0
 16 17  2  0  0  0  0
M  END
