835
 OpenBabel10141417493D

 19 20  0  0  1  0  0  0  0  0999 V2000
    1.0270   -4.1922    0.7461 Br  0  0  0  0  0  0  0  0  0  0  0  0
    9.7900   -0.9681    1.1561 N   0  0  0  0  0  0  0  0  0  0  0  0
    8.0452   -3.5468   -1.8273 N   0  0  0  0  0  0  0  0  0  0  0  0
    6.5557   -1.8042   -0.8667 C   0  0  3  0  0  0  0  0  0  0  0  0
    7.5233   -1.7182    0.3399 C   0  0  0  0  0  0  0  0  0  0  0  0
    8.8794   -1.0693   -0.0055 C   0  0  0  0  0  0  0  0  0  0  0  0
    5.2029   -2.3887   -0.4470 C   0  0  0  0  0  0  0  0  0  0  0  0
    7.1597   -2.5460   -2.0611 C   0  0  0  0  0  0  0  0  0  0  0  0
    5.1048   -3.6763    0.1100 C   0  0  0  0  0  0  0  0  0  0  0  0
    4.0237   -1.6444   -0.6171 C   0  0  0  0  0  0  0  0  0  0  0  0
    6.8141   -2.1568   -3.3573 C   0  0  0  0  0  0  0  0  0  0  0  0
   10.1427   -2.2988    1.6641 C   0  0  0  0  0  0  0  0  0  0  0  0
   11.0184   -0.2634    0.7697 C   0  0  0  0  0  0  0  0  0  0  0  0
    3.8648   -4.2080    0.4766 C   0  0  0  0  0  0  0  0  0  0  0  0
    2.7810   -2.1777   -0.2559 C   0  0  0  0  0  0  0  0  0  0  0  0
    7.4236   -2.7898   -4.4386 C   0  0  0  0  0  0  0  0  0  0  0  0
    2.7080   -3.4601    0.2835 C   0  0  0  0  0  0  0  0  0  0  0  0
    8.6279   -4.1383   -2.8959 C   0  0  0  0  0  0  0  0  0  0  0  0
    8.3491   -3.7943   -4.2084 C   0  0  0  0  0  0  0  0  0  0  0  0
  1 17  1  0  0  0  0
  2  6  1  0  0  0  0
  2 12  1  0  0  0  0
  2 13  1  0  0  0  0
  3  8  1  0  0  0  0
  3 18  2  0  0  0  0
  4  5  1  0  0  0  0
  4  7  1  0  0  0  0
  4  8  1  0  0  0  0
  5  6  1  0  0  0  0
  7  9  2  0  0  0  0
  7 10  1  0  0  0  0
  8 11  2  0  0  0  0
  9 14  1  0  0  0  0
 10 15  2  0  0  0  0
 11 16  1  0  0  0  0
 14 17  2  0  0  0  0
 15 17  1  0  0  0  0
 16 19  2  0  0  0  0
 18 19  1  0  0  0  0
M  END
