1200
 OpenBabel10141417503D

 43 49  0  0  1  0  0  0  0  0999 V2000
   11.4143   14.2441   -9.1908 Br  0  0  0  0  0  0  0  0  0  0  0  0
    3.9346   15.6559   -6.4609 O   0  0  0  0  0  0  0  0  0  0  0  0
    5.5080   14.0315   -6.7083 O   0  0  0  0  0  0  0  0  0  0  0  0
    2.0467   14.1896   -9.0632 O   0  0  0  0  0  0  0  0  0  0  0  0
    2.2976   10.6145   -5.3973 O   0  0  0  0  0  0  0  0  0  0  0  0
    4.2483   18.5403   -7.4648 O   0  0  0  0  0  0  0  0  0  0  0  0
    3.3485   13.5876   -7.2460 N   0  0  0  0  0  0  0  0  0  0  0  0
    3.3092   12.5152   -4.6636 N   0  0  0  0  0  0  0  0  0  0  0  0
    3.8764   16.5917   -8.6037 N   0  0  0  0  0  0  0  0  0  0  0  0
    6.0670   16.4652  -10.7245 N   0  0  0  0  0  0  0  0  0  0  0  0
   11.7542   17.0719   -8.8204 N   0  0  0  0  0  0  0  0  0  0  0  0
    3.8891   13.8401   -4.8567 C   0  0  2  0  0  0  0  0  0  0  0  0
    4.1803   14.2607   -6.3149 C   0  0  2  0  0  0  0  0  0  0  0  0
    3.0426   12.1582   -7.1263 C   0  0  2  0  0  0  0  0  0  0  0  0
    5.0804   13.7852   -3.9045 C   0  0  0  0  0  0  0  0  0  0  0  0
    3.0938   15.8899   -7.5977 C   0  0  1  0  0  0  0  0  0  0  0  0
    3.4999   12.0581   -3.2987 C   0  0  0  0  0  0  0  0  0  0  0  0
    4.4911   13.0553   -2.6931 C   0  0  0  0  0  0  0  0  0  0  0  0
    2.7439   14.4735   -8.0887 C   0  0  0  0  0  0  0  0  0  0  0  0
    2.7917   11.7137   -5.6564 C   0  0  0  0  0  0  0  0  0  0  0  0
    4.1346   11.2268   -7.6983 C   0  0  0  0  0  0  0  0  0  0  0  0
    1.7962   16.6446   -7.1754 C   0  0  0  0  0  0  0  0  0  0  0  0
    4.4591   11.3628   -9.1988 C   0  0  0  0  0  0  0  0  0  0  0  0
    0.9594   15.8734   -6.1424 C   0  0  0  0  0  0  0  0  0  0  0  0
    0.8975   17.0022   -8.3675 C   0  0  0  0  0  0  0  0  0  0  0  0
    4.3618   17.8750   -8.4959 C   0  0  0  0  0  0  0  0  0  0  0  0
    5.0074   18.4864   -9.7717 C   0  0  1  0  0  0  0  0  0  0  0  0
    7.4548   17.0238  -10.5850 C   0  0  1  0  0  0  0  0  0  0  0  0
    5.0940   17.5435  -10.9847 C   0  0  0  0  0  0  0  0  0  0  0  0
    5.5570   10.3587   -9.5778 C   0  0  0  0  0  0  0  0  0  0  0  0
    3.2402   11.1260  -10.0917 C   0  0  0  0  0  0  0  0  0  0  0  0
    7.4938   18.4073   -9.8637 C   0  0  0  0  0  0  0  0  0  0  0  0
    6.3753   19.0397   -9.4621 C   0  0  0  0  0  0  0  0  0  0  0  0
    8.3764   15.9659   -9.8679 C   0  0  0  0  0  0  0  0  0  0  0  0
    8.8314   18.9515   -9.5370 C   0  0  0  0  0  0  0  0  0  0  0  0
    9.6935   16.5598   -9.4918 C   0  0  0  0  0  0  0  0  0  0  0  0
    9.8071   17.9631   -9.3546 C   0  0  0  0  0  0  0  0  0  0  0  0
    6.0001   15.4512  -11.7792 C   0  0  0  0  0  0  0  0  0  0  0  0
   11.0922   18.2747   -8.9387 C   0  0  0  0  0  0  0  0  0  0  0  0
   10.9243   16.0388   -9.1809 C   0  0  0  0  0  0  0  0  0  0  0  0
    9.2203   20.2827   -9.3518 C   0  0  0  0  0  0  0  0  0  0  0  0
   11.4836   19.5935   -8.6972 C   0  0  0  0  0  0  0  0  0  0  0  0
   10.5238   20.5921   -8.9336 C   0  0  0  0  0  0  0  0  0  0  0  0
  1 40  1  0  0  0  0
  2 13  1  0  0  0  0
  2 16  1  0  0  0  0
  4 19  2  0  0  0  0
  5 20  2  0  0  0  0
  6 26  2  0  0  0  0
  7 13  1  0  0  0  0
  7 14  1  0  0  0  0
  7 19  1  0  0  0  0
  8 17  1  0  0  0  0
  8 20  1  0  0  0  0
  9 26  1  0  0  0  0
 10 29  1  0  0  0  0
 10 38  1  0  0  0  0
 11 39  1  0  0  0  0
 11 40  1  0  0  0  0
 12  8  1  6  0  0  0
 12 13  1  0  0  0  0
 12 15  1  0  0  0  0
 13  3  1  6  0  0  0
 14 20  1  0  0  0  0
 14 21  1  1  0  0  0
 15 18  1  0  0  0  0
 16 19  1  0  0  0  0
 16  9  1  6  0  0  0
 16 22  1  0  0  0  0
 17 18  1  0  0  0  0
 21 23  1  0  0  0  0
 22 24  1  0  0  0  0
 22 25  1  0  0  0  0
 23 30  1  0  0  0  0
 23 31  1  0  0  0  0
 27 26  1  6  0  0  0
 27 29  1  0  0  0  0
 27 33  1  0  0  0  0
 28 10  1  1  0  0  0
 28 32  1  0  0  0  0
 28 34  1  0  0  0  0
 32 33  2  0  0  0  0
 32 35  1  0  0  0  0
 34 36  1  0  0  0  0
 35 37  2  0  0  0  0
 35 41  1  0  0  0  0
 36 37  1  0  0  0  0
 36 40  2  0  0  0  0
 37 39  1  0  0  0  0
 39 42  2  0  0  0  0
 41 43  2  0  0  0  0
 42 43  1  0  0  0  0
M  END
