1558
 OpenBabel10141418083D

 19 21  0  0  0  0  0  0  0  0999 V2000
    0.9513   -0.0476   -0.3068 Br  0  0  0  0  0  0  0  0  0  0  0  0
    9.1159    0.5981   -0.3919 O   0  0  0  0  0  0  0  0  0  0  0  0
    7.0232   -0.0553    0.1002 N   0  0  0  0  0  0  0  0  0  0  0  0
    6.6619    2.9417   -0.2357 N   0  0  0  0  0  0  0  0  0  0  0  0
    4.0708    2.9515    2.2161 N   0  0  0  0  0  0  0  0  0  0  0  0
    4.9001    1.2360    0.0761 C   0  0  0  0  0  0  0  0  0  0  0  0
    5.6232    0.0317    0.0875 C   0  0  0  0  0  0  0  0  0  0  0  0
    5.5606    2.5572    0.3229 C   0  0  0  0  0  0  0  0  0  0  0  0
    3.5027    1.2024   -0.0717 C   0  0  0  0  0  0  0  0  0  0  0  0
    7.3444    2.0492   -1.1641 C   0  0  0  0  0  0  0  0  0  0  0  0
    4.9216    3.4986    1.3112 C   0  0  0  0  0  0  0  0  0  0  0  0
    4.9283   -1.1867    0.0769 C   0  0  0  0  0  0  0  0  0  0  0  0
    7.9095    0.8456   -0.4295 C   0  0  0  0  0  0  0  0  0  0  0  0
    2.8328   -0.0173   -0.1304 C   0  0  0  0  0  0  0  0  0  0  0  0
    3.5370   -1.2127   -0.0379 C   0  0  0  0  0  0  0  0  0  0  0  0
    5.2397    4.8529    1.2875 C   0  0  0  0  0  0  0  0  0  0  0  0
    4.6477    5.6907    2.2284 C   0  0  0  0  0  0  0  0  0  0  0  0
    3.5206    3.7902    3.1206 C   0  0  0  0  0  0  0  0  0  0  0  0
    3.7723    5.1518    3.1643 C   0  0  0  0  0  0  0  0  0  0  0  0
  1 14  1  0  0  0  0
  2 13  2  0  0  0  0
  3  7  1  0  0  0  0
  3 13  1  0  0  0  0
  4  8  2  0  0  0  0
  4 10  1  0  0  0  0
  5 11  1  0  0  0  0
  5 18  2  0  0  0  0
  6  7  2  0  0  0  0
  6  8  1  0  0  0  0
  6  9  1  0  0  0  0
  7 12  1  0  0  0  0
  8 11  1  0  0  0  0
  9 14  2  0  0  0  0
 10 13  1  0  0  0  0
 11 16  2  0  0  0  0
 12 15  2  0  0  0  0
 14 15  1  0  0  0  0
 16 17  1  0  0  0  0
 17 19  2  0  0  0  0
 18 19  1  0  0  0  0
M  END
