1237
 OpenBabel10141417533D

 20 21  0  0  1  0  0  0  0  0999 V2000
    0.8714    0.3709    0.4162 Br  0  0  0  0  0  0  0  0  0  0  0  0
    7.7426   -0.0368    0.8499 O   0  0  0  0  0  0  0  0  0  0  0  0
   10.6860    2.2794    1.1858 N   0  0  0  0  0  0  0  0  0  0  0  0
    7.0087   -0.5570   -0.2761 C   0  0  3  0  0  0  0  0  0  0  0  0
    5.5046   -0.3302   -0.0816 C   0  0  0  0  0  0  0  0  0  0  0  0
    7.4565   -1.9965   -0.5431 C   0  0  0  0  0  0  0  0  0  0  0  0
    8.8374    0.7690    0.4069 C   0  0  0  0  0  0  0  0  0  0  0  0
    9.5852    1.3837    1.6004 C   0  0  0  0  0  0  0  0  0  0  0  0
    4.5893   -0.7655   -1.0616 C   0  0  0  0  0  0  0  0  0  0  0  0
    4.9938    0.4055    0.9992 C   0  0  0  0  0  0  0  0  0  0  0  0
    7.8877   -2.8572    0.4747 C   0  0  0  0  0  0  0  0  0  0  0  0
    7.5192   -2.4627   -1.8684 C   0  0  0  0  0  0  0  0  0  0  0  0
   10.1867    3.4360    0.4378 C   0  0  0  0  0  0  0  0  0  0  0  0
   11.4422    2.7438    2.3517 C   0  0  0  0  0  0  0  0  0  0  0  0
    3.2158   -0.5370   -0.9227 C   0  0  0  0  0  0  0  0  0  0  0  0
    3.6179    0.6232    1.1512 C   0  0  0  0  0  0  0  0  0  0  0  0
    8.3681   -4.1408    0.1754 C   0  0  0  0  0  0  0  0  0  0  0  0
    7.9916   -3.7434   -2.1689 C   0  0  0  0  0  0  0  0  0  0  0  0
    2.7333    0.1305    0.1928 C   0  0  0  0  0  0  0  0  0  0  0  0
    8.4179   -4.5818   -1.1488 C   0  0  0  0  0  0  0  0  0  0  0  0
  1 19  1  0  0  0  0
  2  4  1  0  0  0  0
  2  7  1  0  0  0  0
  3  8  1  0  0  0  0
  3 13  1  0  0  0  0
  3 14  1  0  0  0  0
  4  5  1  0  0  0  0
  4  6  1  0  0  0  0
  5  9  2  0  0  0  0
  5 10  1  0  0  0  0
  6 11  2  0  0  0  0
  6 12  1  0  0  0  0
  7  8  1  0  0  0  0
  9 15  1  0  0  0  0
 10 16  2  0  0  0  0
 11 17  1  0  0  0  0
 12 18  2  0  0  0  0
 15 19  2  0  0  0  0
 16 19  1  0  0  0  0
 17 20  2  0  0  0  0
 18 20  1  0  0  0  0
M  END
