297
 OpenBabel10141417493D

 21 22  0  0  1  0  0  0  0  0999 V2000
    1.2415   -0.5341    0.8847 O   0  0  0  0  0  0  0  0  0  0  0  0
    3.6063   -1.5903   -1.6496 N   0  0  0  0  0  0  0  0  0  0  0  0
    2.4174    0.7384   -0.6544 N   0  0  0  0  0  0  0  0  0  0  0  0
    3.1257   -1.5865   -0.2303 C   0  0  3  0  0  0  0  0  0  0  0  0
    2.5984   -2.9456    0.2809 C   0  0  0  0  0  0  0  0  0  0  0  0
    2.6238   -2.2533   -2.5261 C   0  0  0  0  0  0  0  0  0  0  0  0
    1.6947   -3.6789   -0.7082 C   0  0  0  0  0  0  0  0  0  0  0  0
    2.2928   -3.6827   -2.1060 C   0  0  0  0  0  0  0  0  0  0  0  0
    4.9558   -2.2057   -1.7071 C   0  0  0  0  0  0  0  0  0  0  0  0
    2.1270   -0.4337    0.0446 C   0  0  0  0  0  0  0  0  0  0  0  0
    5.5598   -2.2674   -3.1170 C   0  0  0  0  0  0  0  0  0  0  0  0
    6.9512   -2.9045   -3.1245 C   0  0  0  0  0  0  0  0  0  0  0  0
    1.7382    1.9468   -0.3663 C   0  0  0  0  0  0  0  0  0  0  0  0
    7.5110   -2.9523   -4.5394 C   0  0  0  0  0  0  0  0  0  0  0  0
    1.0662    2.6332   -1.3999 C   0  0  0  0  0  0  0  0  0  0  0  0
    1.7286    2.4724    0.9474 C   0  0  0  0  0  0  0  0  0  0  0  0
    0.2981    3.7679   -1.0810 C   0  0  0  0  0  0  0  0  0  0  0  0
    0.9567    3.6125    1.2276 C   0  0  0  0  0  0  0  0  0  0  0  0
    1.0771    2.1574   -2.8259 C   0  0  0  0  0  0  0  0  0  0  0  0
    2.5349    1.9064    2.0882 C   0  0  0  0  0  0  0  0  0  0  0  0
    0.2316    4.2450    0.2251 C   0  0  0  0  0  0  0  0  0  0  0  0
  1 10  2  0  0  0  0
  2  4  1  0  0  0  0
  2  6  1  0  0  0  0
  2  9  1  0  0  0  0
  3 10  1  0  0  0  0
  3 13  1  0  0  0  0
  4  5  1  0  0  0  0
  4 10  1  0  0  0  0
  5  7  1  0  0  0  0
  6  8  1  0  0  0  0
  7  8  1  0  0  0  0
  9 11  1  0  0  0  0
 11 12  1  0  0  0  0
 12 14  1  0  0  0  0
 13 15  2  0  0  0  0
 13 16  1  0  0  0  0
 15 17  1  0  0  0  0
 15 19  1  0  0  0  0
 16 18  2  0  0  0  0
 16 20  1  0  0  0  0
 17 21  2  0  0  0  0
 18 21  1  0  0  0  0
M  END
