644073
 OpenBabel10141417503D

 34 40  0  0  1  0  0  0  0  0999 V2000
    2.8824   -2.9886   -4.3435 O   0  0  0  0  0  0  0  0  0  0  0  0
    0.3699   -1.3037   -3.5966 O   0  0  0  0  0  0  0  0  0  0  0  0
   -1.3755   -3.4418   -3.1104 O   0  0  0  0  0  0  0  0  0  0  0  0
    3.5847   -5.3874   -5.8049 O   0  0  0  0  0  0  0  0  0  0  0  0
    5.3302   -2.4278    0.3208 N   0  0  0  0  0  0  0  0  0  0  0  0
    3.0045   -2.6309   -0.7540 C   0  0  2  0  0  0  0  0  0  0  0  0
    3.7038   -2.4572   -2.1073 C   0  0  1  0  0  0  0  0  0  0  0  0
    1.3202   -1.7976   -2.6497 C   0  0  1  0  0  0  0  0  0  0  0  0
    2.7564   -2.0572   -3.2389 C   0  0  2  0  0  0  0  0  0  0  0  0
    0.6883   -3.0261   -1.8522 C   0  0  2  0  0  0  0  0  0  0  0  0
    1.7714   -3.5914   -0.9099 C   0  0  0  0  0  0  0  0  0  0  0  0
    4.0913   -3.2291    0.1965 C   0  0  1  0  0  0  0  0  0  0  0  0
    2.3650   -1.2790   -0.3357 C   0  0  0  0  0  0  0  0  0  0  0  0
    1.5567   -0.7121   -1.5212 C   0  0  0  0  0  0  0  0  0  0  0  0
    4.9530   -1.5625   -2.0357 C   0  0  0  0  0  0  0  0  0  0  0  0
    4.1156   -3.7984   -2.5841 C   0  0  0  0  0  0  0  0  0  0  0  0
    4.5787   -4.6672   -0.2937 C   0  0  0  0  0  0  0  0  0  0  0  0
   -0.2230   -4.1239   -2.5659 C   0  0  1  0  0  0  0  0  0  0  0  0
    5.5009   -1.3290   -0.6236 C   0  0  0  0  0  0  0  0  0  0  0  0
    4.6268   -4.8207   -1.7971 C   0  0  0  0  0  0  0  0  0  0  0  0
    3.7151   -3.9873   -3.8837 C   0  0  0  0  0  0  0  0  0  0  0  0
    5.5985   -2.0807    1.7236 C   0  0  0  0  0  0  0  0  0  0  0  0
   -0.8217   -5.2800   -1.6093 C   0  0  0  0  0  0  0  0  0  0  0  0
    6.8875   -1.3367    1.8997 C   0  0  0  0  0  0  0  0  0  0  0  0
    0.4535   -4.7285   -3.7973 C   0  0  0  0  0  0  0  0  0  0  0  0
    4.9039   -6.0416   -2.4422 C   0  0  0  0  0  0  0  0  0  0  0  0
    3.9892   -5.1729   -4.5270 C   0  0  0  0  0  0  0  0  0  0  0  0
    7.3380   -0.8273    3.2507 C   0  0  0  0  0  0  0  0  0  0  0  0
    6.8326    0.1385    2.2171 C   0  0  0  0  0  0  0  0  0  0  0  0
    0.7375   -0.1690   -4.3725 C   0  0  0  0  0  0  0  0  0  0  0  0
    4.6156   -6.1966   -3.8139 C   0  0  0  0  0  0  0  0  0  0  0  0
   -1.5489   -4.6749   -0.3849 C   0  0  0  0  0  0  0  0  0  0  0  0
   -1.8954   -6.1206   -2.3611 C   0  0  0  0  0  0  0  0  0  0  0  0
    0.2105   -6.3121   -1.0917 C   0  0  0  0  0  0  0  0  0  0  0  0
  1 21  1  0  0  0  0
  2 30  1  0  0  0  0
  4 27  1  0  0  0  0
  5 19  1  0  0  0  0
  5 22  1  0  0  0  0
  6  7  1  0  0  0  0
  6 11  1  1  0  0  0
  6 12  1  0  0  0  0
  6 13  1  0  0  0  0
  7  9  1  0  0  0  0
  7 15  1  1  0  0  0
  7 16  1  0  0  0  0
  8  2  1  1  0  0  0
  8  9  1  0  0  0  0
  8 10  1  0  0  0  0
  8 14  1  0  0  0  0
  9  1  1  6  0  0  0
 10 11  1  6  0  0  0
 12  5  1  6  0  0  0
 12 17  1  0  0  0  0
 13 14  1  0  0  0  0
 15 19  1  0  0  0  0
 16 20  2  0  0  0  0
 16 21  1  0  0  0  0
 17 20  1  0  0  0  0
 18 23  1  1  0  0  0
 18 25  1  0  0  0  0
 18 10  1  0  0  0  0
 18  3  1  0  0  0  0
 20 26  1  0  0  0  0
 21 27  2  0  0  0  0
 22 24  1  0  0  0  0
 23 32  1  0  0  0  0
 23 33  1  0  0  0  0
 23 34  1  0  0  0  0
 24 28  1  0  0  0  0
 24 29  1  0  0  0  0
 26 31  2  0  0  0  0
 27 31  1  0  0  0  0
 28 29  1  0  0  0  0
M  END
