1156
 OpenBabel10141417503D

 16 16  0  0  1  0  0  0  0  0999 V2000
    5.0091   -1.3209    4.7367 Cl  0  0  0  0  0  0  0  0  0  0  0  0
    6.9681   -2.8230   -0.9914 O   0  0  0  0  0  0  0  0  0  0  0  0
    4.1054   -3.4284   -1.6443 N   0  0  0  0  0  0  0  0  0  0  0  0
    3.6027   -2.1110   -2.0916 C   0  0  0  0  0  0  0  0  0  0  0  0
    4.7497   -3.5410   -0.3135 C   0  0  3  0  0  0  0  0  0  0  0  0
    4.7189   -1.0951   -2.3847 C   0  0  0  0  0  0  0  0  0  0  0  0
    2.8657   -2.3297   -3.4333 C   0  0  0  0  0  0  0  0  0  0  0  0
    2.5976   -1.5109   -1.0947 C   0  0  0  0  0  0  0  0  0  0  0  0
    5.1324   -5.0049   -0.0435 C   0  0  0  0  0  0  0  0  0  0  0  0
    6.0440   -2.7178   -0.1963 C   0  0  0  0  0  0  0  0  0  0  0  0
    6.1704   -1.7442    0.9366 C   0  0  0  0  0  0  0  0  0  0  0  0
    5.5625   -1.9625    2.1760 C   0  0  0  0  0  0  0  0  0  0  0  0
    6.9418   -0.5878    0.7399 C   0  0  0  0  0  0  0  0  0  0  0  0
    5.7326   -1.0315    3.2020 C   0  0  0  0  0  0  0  0  0  0  0  0
    7.0928    0.3472    1.7672 C   0  0  0  0  0  0  0  0  0  0  0  0
    6.4917    0.1207    3.0040 C   0  0  0  0  0  0  0  0  0  0  0  0
  1 14  1  0  0  0  0
  2 10  2  0  0  0  0
  3  4  1  0  0  0  0
  3  5  1  0  0  0  0
  4  6  1  0  0  0  0
  4  7  1  0  0  0  0
  4  8  1  0  0  0  0
  5  9  1  0  0  0  0
  5 10  1  0  0  0  0
 10 11  1  0  0  0  0
 11 12  2  0  0  0  0
 11 13  1  0  0  0  0
 12 14  1  0  0  0  0
 13 15  2  0  0  0  0
 14 16  2  0  0  0  0
 15 16  1  0  0  0  0
M  END
