490
 OpenBabel10141417553D

 28 31  0  0  0  0  0  0  0  0999 V2000
    4.3819    2.0425    0.0955 O   0  0  0  0  0  0  0  0  0  0  0  0
   -0.0975    2.6309   -0.6266 O   0  0  0  0  0  0  0  0  0  0  0  0
    2.1255    2.5887    0.0540 N   0  0  0  0  0  0  0  0  0  0  0  0
   -0.3034    4.8964    1.5349 N   0  0  0  0  0  0  0  0  0  0  0  0
   -0.7386    7.5883    2.6616 N   0  0  0  0  0  0  0  0  0  0  0  0
   -0.5869    8.6165    4.7984 N   0  0  0  0  0  0  0  0  0  0  0  0
    0.4737    9.5939    2.9290 N   0  0  0  0  0  0  0  0  0  0  0  0
    2.8006    3.9138   -2.3756 C   0  0  0  0  0  0  0  0  0  0  0  0
    2.9877    2.6293   -3.2126 C   0  0  0  0  0  0  0  0  0  0  0  0
    3.0750    5.0882   -3.3407 C   0  0  0  0  0  0  0  0  0  0  0  0
    3.1356    3.1057   -4.6507 C   0  0  0  0  0  0  0  0  0  0  0  0
    3.8143    4.4564   -4.5074 C   0  0  0  0  0  0  0  0  0  0  0  0
    3.7440    3.9464   -1.1814 C   0  0  0  0  0  0  0  0  0  0  0  0
    1.3804    4.0171   -1.8421 C   0  0  0  0  0  0  0  0  0  0  0  0
    3.4643    2.7682   -0.2834 C   0  0  0  0  0  0  0  0  0  0  0  0
    1.0676    3.0209   -0.7515 C   0  0  0  0  0  0  0  0  0  0  0  0
    1.8486    1.5777    1.0735 C   0  0  0  0  0  0  0  0  0  0  0  0
    0.7092    1.8894    2.0601 C   0  0  0  0  0  0  0  0  0  0  0  0
    0.9042    3.1351    2.9304 C   0  0  0  0  0  0  0  0  0  0  0  0
    0.9327    4.5135    2.2407 C   0  0  0  0  0  0  0  0  0  0  0  0
   -0.1320    6.1322    0.7378 C   0  0  0  0  0  0  0  0  0  0  0  0
   -1.4266    5.1787    2.4594 C   0  0  0  0  0  0  0  0  0  0  0  0
    0.1912    7.3906    1.5403 C   0  0  0  0  0  0  0  0  0  0  0  0
   -1.1808    6.3870    3.3940 C   0  0  0  0  0  0  0  0  0  0  0  0
   -0.2864    8.6308    3.4832 C   0  0  0  0  0  0  0  0  0  0  0  0
   -0.0733    9.5896    5.5523 C   0  0  0  0  0  0  0  0  0  0  0  0
    0.9650   10.5495    3.7291 C   0  0  0  0  0  0  0  0  0  0  0  0
    0.7272   10.5997    5.0738 C   0  0  0  0  0  0  0  0  0  0  0  0
  1 15  2  0  0  0  0
  2 16  2  0  0  0  0
  3 15  1  0  0  0  0
  3 16  1  0  0  0  0
  3 17  1  0  0  0  0
  4 20  1  0  0  0  0
  4 21  1  0  0  0  0
  4 22  1  0  0  0  0
  5 23  1  0  0  0  0
  5 24  1  0  0  0  0
  5 25  1  0  0  0  0
  6 25  2  0  0  0  0
  6 26  1  0  0  0  0
  7 25  1  0  0  0  0
  7 27  2  0  0  0  0
  8  9  1  0  0  0  0
  8 10  1  0  0  0  0
  8 13  1  0  0  0  0
  8 14  1  0  0  0  0
  9 11  1  0  0  0  0
 10 12  1  0  0  0  0
 11 12  1  0  0  0  0
 13 15  1  0  0  0  0
 14 16  1  0  0  0  0
 17 18  1  0  0  0  0
 18 19  1  0  0  0  0
 19 20  1  0  0  0  0
 21 23  1  0  0  0  0
 22 24  1  0  0  0  0
 26 28  2  0  0  0  0
 27 28  1  0  0  0  0
M  END
