1008
 OpenBabel10141418213D

 14 13  0  0  0  0  0  0  0  0999 V2000
    1.8659    3.3847    4.3961 S   0  0  0  0  0  0  0  0  0  0  0  0
    3.1828    7.6381    2.0391 S   0  0  0  0  0  0  0  0  0  0  0  0
    1.8362    3.9150    2.8571 O   0  0  0  0  0  0  0  0  0  0  0  0
    2.3707    6.5398    1.1535 O   0  0  0  0  0  0  0  0  0  0  0  0
    2.5427    2.1065    4.4243 O   0  0  0  0  0  0  0  0  0  0  0  0
    0.5456    3.5615    4.9708 O   0  0  0  0  0  0  0  0  0  0  0  0
    2.5264    8.9230    1.9033 O   0  0  0  0  0  0  0  0  0  0  0  0
    3.4879    7.0702    3.3317 O   0  0  0  0  0  0  0  0  0  0  0  0
    1.0813    3.9088    0.5675 C   0  0  0  0  0  0  0  0  0  0  0  0
    0.3938    5.2824    0.5574 C   0  0  0  0  0  0  0  0  0  0  0  0
    1.0709    3.1868    1.9153 C   0  0  0  0  0  0  0  0  0  0  0  0
    1.0026    6.3346    1.4817 C   0  0  0  0  0  0  0  0  0  0  0  0
    2.9517    4.6269    5.0469 C   0  0  0  0  0  0  0  0  0  0  0  0
    4.6773    7.6614    1.0829 C   0  0  0  0  0  0  0  0  0  0  0  0
  1  3  1  0  0  0  0
  1  5  2  0  0  0  0
  1  6  2  0  0  0  0
  1 13  1  0  0  0  0
  2  4  1  0  0  0  0
  2  7  2  0  0  0  0
  2  8  2  0  0  0  0
  2 14  1  0  0  0  0
  3 11  1  0  0  0  0
  4 12  1  0  0  0  0
  9 10  1  0  0  0  0
  9 11  1  0  0  0  0
 10 12  1  0  0  0  0
M  END
