1353
 OpenBabel10141417483D

 15 15  0  0  0  0  0  0  0  0999 V2000
    0.0413    0.2819    0.6226 O   0  0  0  0  0  0  0  0  0  0  0  0
    3.6785    2.6078    2.3329 O   0  0  0  0  0  0  0  0  0  0  0  0
    1.9020   -0.8013    4.4863 O   0  0  0  0  0  0  0  0  0  0  0  0
    1.2371   -0.5230    2.3488 N   0  0  0  0  0  0  0  0  0  0  0  0
    3.0770    0.6138    3.1800 N   0  0  0  0  0  0  0  0  0  0  0  0
    2.2762    1.1949    0.9357 C   0  0  0  0  0  0  0  0  0  0  0  0
    3.1913    0.3058    0.0362 C   0  0  0  0  0  0  0  0  0  0  0  0
    1.8162    2.4649    0.1780 C   0  0  0  0  0  0  0  0  0  0  0  0
    4.4570    0.9857   -0.5064 C   0  0  0  0  0  0  0  0  0  0  0  0
    1.0781    0.3169    1.2814 C   0  0  0  0  0  0  0  0  0  0  0  0
    3.0533    1.5592    2.1935 C   0  0  0  0  0  0  0  0  0  0  0  0
    5.2761    0.0189   -1.3657 C   0  0  0  0  0  0  0  0  0  0  0  0
    0.8464    3.3544    0.9559 C   0  0  0  0  0  0  0  0  0  0  0  0
    2.0821   -0.2888    3.3873 C   0  0  0  0  0  0  0  0  0  0  0  0
    6.5224    0.6866   -1.9259 C   0  0  0  0  0  0  0  0  0  0  0  0
  1 10  2  0  0  0  0
  2 11  2  0  0  0  0
  3 14  2  0  0  0  0
  4 10  1  0  0  0  0
  4 14  1  0  0  0  0
  5 11  1  0  0  0  0
  5 14  1  0  0  0  0
  6  7  1  0  0  0  0
  6  8  1  0  0  0  0
  6 10  1  0  0  0  0
  6 11  1  0  0  0  0
  7  9  1  0  0  0  0
  8 13  1  0  0  0  0
  9 12  1  0  0  0  0
 12 15  1  0  0  0  0
M  END
