611
 OpenBabel10141417533D

 24 28  0  0  1  0  0  0  0  0999 V2000
   10.8204   -1.0583    7.9945 O   0  0  0  0  0  0  0  0  0  0  0  0
    6.1707    0.8940    7.0136 O   0  0  0  0  0  0  0  0  0  0  0  0
   11.4147   -0.2106    3.8992 N   0  0  0  0  0  0  0  0  0  0  0  0
   11.1188    1.5922    7.1348 C   0  0  1  0  0  0  0  0  0  0  0  0
   11.7089   -0.2280    7.2179 C   0  0  1  0  0  0  0  0  0  0  0  0
   11.8923   -0.8923    5.4876 C   0  0  2  0  0  0  0  0  0  0  0  0
   11.3305    2.5442    5.5238 C   0  0  0  0  0  0  0  0  0  0  0  0
   11.4257    2.3637    8.3951 C   0  0  0  0  0  0  0  0  0  0  0  0
   13.0561   -0.3162    8.0048 C   0  0  0  0  0  0  0  0  0  0  0  0
    9.7598    1.2636    6.7981 C   0  0  0  0  0  0  0  0  0  0  0  0
   11.1300    1.5924    3.8984 C   0  0  0  0  0  0  0  0  0  0  0  0
   12.0179    0.4684    5.4835 C   0  0  0  0  0  0  0  0  0  0  0  0
   12.8505    2.0869    8.8696 C   0  0  0  0  0  0  0  0  0  0  0  0
   13.0820    0.6137    9.2203 C   0  0  0  0  0  0  0  0  0  0  0  0
   10.1035    0.4735    5.7197 C   0  0  0  0  0  0  0  0  0  0  0  0
   12.3588   -0.5766    2.8241 C   0  0  0  0  0  0  0  0  0  0  0  0
   12.3975   -2.0829    2.5963 C   0  0  0  0  0  0  0  0  0  0  0  0
   13.3588   -2.5405    1.4660 C   0  0  0  0  0  0  0  0  0  0  0  0
   11.2577   -2.7250    1.7589 C   0  0  0  0  0  0  0  0  0  0  0  0
    8.4865    1.4605    7.2762 C   0  0  0  0  0  0  0  0  0  0  0  0
   12.3334   -3.6441    1.1406 C   0  0  0  0  0  0  0  0  0  0  0  0
    9.0701   -0.2753    5.1162 C   0  0  0  0  0  0  0  0  0  0  0  0
    7.4725    0.7719    6.6239 C   0  0  0  0  0  0  0  0  0  0  0  0
    7.7528   -0.0972    5.5635 C   0  0  0  0  0  0  0  0  0  0  0  0
  2 23  1  0  0  0  0
  3 11  1  0  0  0  0
  3 16  1  0  0  0  0
  4  5  1  0  0  0  0
  4  7  1  1  0  0  0
  4  8  1  0  0  0  0
  4 10  1  0  0  0  0
  5  6  1  0  0  0  0
  5  9  1  0  0  0  0
  5  1  1  6  0  0  0
  6  3  1  6  0  0  0
  6 12  1  0  0  0  0
  7 11  1  0  0  0  0
  8 13  1  0  0  0  0
  9 14  1  0  0  0  0
 10 15  2  0  0  0  0
 10 20  1  0  0  0  0
 12 15  1  0  0  0  0
 13 14  1  0  0  0  0
 15 22  1  0  0  0  0
 16 17  1  0  0  0  0
 17 18  1  0  0  0  0
 17 19  1  0  0  0  0
 18 21  1  0  0  0  0
 19 21  1  0  0  0  0
 20 23  2  0  0  0  0
 22 24  2  0  0  0  0
 23 24  1  0  0  0  0
M  END
