248
 OpenBabel10141417493D

 33 36  0  0  1  0  0  0  0  0999 V2000
   -2.3551    1.8707   -0.0775 O   0  0  0  0  0  0  0  0  0  0  0  0
    1.3257    0.1081    0.2841 O   0  0  0  0  0  0  0  0  0  0  0  0
   -5.4919    0.1145   -2.1815 N   0  0  0  0  0  0  0  0  0  0  0  0
   -6.0847   -2.2733   -6.8931 N   0  0  0  0  0  0  0  0  0  0  0  0
   -0.6620    0.5365   -0.8687 N   0  0  0  0  0  0  0  0  0  0  0  0
   -0.3210    1.3108    1.3180 N   0  0  0  0  0  0  0  0  0  0  0  0
    2.3910    2.8358   -3.9504 N   0  0  0  0  0  0  0  0  0  0  0  0
   -4.0179    0.8619   -4.1773 C   0  0  2  0  0  0  0  0  0  0  0  0
   -5.4390    0.8392   -3.4833 C   0  0  1  0  0  0  0  0  0  0  0  0
   -2.9393    1.2890   -3.1817 C   0  0  0  0  0  0  0  0  0  0  0  0
   -2.9700    0.4504   -1.9027 C   0  0  2  0  0  0  0  0  0  0  0  0
   -6.6027    0.5019   -4.4949 C   0  0  0  0  0  0  0  0  0  0  0  0
   -4.3910    0.5340   -1.2927 C   0  0  0  0  0  0  0  0  0  0  0  0
   -3.7536   -0.3963   -4.9824 C   0  0  0  0  0  0  0  0  0  0  0  0
   -4.8779   -0.9703   -5.5918 C   0  0  0  0  0  0  0  0  0  0  0  0
   -6.2302   -0.5958   -5.4386 C   0  0  0  0  0  0  0  0  0  0  0  0
   -5.6404   -1.3410   -2.2554 C   0  0  0  0  0  0  0  0  0  0  0  0
   -1.9818    0.9989   -0.8708 C   0  0  0  0  0  0  0  0  0  0  0  0
   -4.7957   -2.0342   -6.4683 C   0  0  0  0  0  0  0  0  0  0  0  0
   -2.5182   -0.9744   -5.3014 C   0  0  0  0  0  0  0  0  0  0  0  0
   -6.9622   -1.4032   -6.2780 C   0  0  0  0  0  0  0  0  0  0  0  0
   -3.5736   -2.6299   -6.7776 C   0  0  0  0  0  0  0  0  0  0  0  0
   -2.4365   -2.0781   -6.1669 C   0  0  0  0  0  0  0  0  0  0  0  0
   -6.1071   -1.9077   -0.9385 C   0  0  0  0  0  0  0  0  0  0  0  0
    0.0515    0.3120   -2.1274 C   0  0  0  0  0  0  0  0  0  0  0  0
    0.1854    0.6051    0.2673 C   0  0  0  0  0  0  0  0  0  0  0  0
    0.8322    1.5964   -2.4233 C   0  0  0  0  0  0  0  0  0  0  0  0
   -5.4507   -2.8420   -0.2373 C   0  0  0  0  0  0  0  0  0  0  0  0
    1.6078    1.6030   -3.7341 C   0  0  0  0  0  0  0  0  0  0  0  0
    0.4002    1.6604    2.5211 C   0  0  0  0  0  0  0  0  0  0  0  0
    1.5512    4.0354   -3.9628 C   0  0  0  0  0  0  0  0  0  0  0  0
    3.4679    2.9911   -2.9669 C   0  0  0  0  0  0  0  0  0  0  0  0
    1.1630    2.9684    2.3875 C   0  0  0  0  0  0  0  0  0  0  0  0
  1 18  2  0  0  0  0
  2 26  2  0  0  0  0
  3 13  1  0  0  0  0
  3 17  1  0  0  0  0
  4 19  1  0  0  0  0
  4 21  1  0  0  0  0
  5 18  1  0  0  0  0
  5 25  1  0  0  0  0
  5 26  1  0  0  0  0
  6 26  1  0  0  0  0
  6 30  1  0  0  0  0
  7 29  1  0  0  0  0
  7 31  1  0  0  0  0
  7 32  1  0  0  0  0
  8  9  1  0  0  0  0
  8 10  1  6  0  0  0
  8 14  1  0  0  0  0
  9  3  1  1  0  0  0
  9 12  1  0  0  0  0
 10 11  1  0  0  0  0
 11 13  1  0  0  0  0
 11 18  1  1  0  0  0
 12 16  1  0  0  0  0
 14 15  2  0  0  0  0
 14 20  1  0  0  0  0
 15 16  1  0  0  0  0
 15 19  1  0  0  0  0
 16 21  2  0  0  0  0
 17 24  1  0  0  0  0
 19 22  2  0  0  0  0
 20 23  2  0  0  0  0
 22 23  1  0  0  0  0
 24 28  2  0  0  0  0
 25 27  1  0  0  0  0
 27 29  1  0  0  0  0
 30 33  1  0  0  0  0
M  END
