201
 OpenBabel10141417593D

 14 15  0  0  0  0  0  0  0  0999 V2000
    1.0155   -0.0368   -0.0575 O   0  0  0  0  0  0  0  0  0  0  0  0
    4.9975   -2.3821   -0.0744 O   0  0  0  0  0  0  0  0  0  0  0  0
    5.1040   -0.0897   -0.0773 N   0  0  0  0  0  0  0  0  0  0  0  0
    2.7202    2.4517   -0.0661 N   0  0  0  0  0  0  0  0  0  0  0  0
    3.0019   -1.2309   -0.0611 N   0  0  0  0  0  0  0  0  0  0  0  0
    4.9436    2.3435   -0.0772 N   0  0  0  0  0  0  0  0  0  0  0  0
    3.0403    1.1233   -0.0671 C   0  0  0  0  0  0  0  0  0  0  0  0
    4.4054    1.0929   -0.0742 C   0  0  0  0  0  0  0  0  0  0  0  0
    2.2427   -0.0570   -0.0617 C   0  0  0  0  0  0  0  0  0  0  0  0
    4.4071   -1.2972   -0.0713 C   0  0  0  0  0  0  0  0  0  0  0  0
    3.9024    3.1490   -0.0716 C   0  0  0  0  0  0  0  0  0  0  0  0
    6.5524   -0.1243   -0.0856 C   0  0  0  0  0  0  0  0  0  0  0  0
    1.4172    3.0661   -0.0593 C   0  0  0  0  0  0  0  0  0  0  0  0
    2.3004   -2.4996   -0.0502 C   0  0  0  0  0  0  0  0  0  0  0  0
  1  9  2  0  0  0  0
  2 10  2  0  0  0  0
  3  8  1  0  0  0  0
  3 10  1  0  0  0  0
  3 12  1  0  0  0  0
  4  7  1  0  0  0  0
  4 11  1  0  0  0  0
  4 13  1  0  0  0  0
  5  9  1  0  0  0  0
  5 10  1  0  0  0  0
  5 14  1  0  0  0  0
  6  8  1  0  0  0  0
  6 11  2  0  0  0  0
  7  8  2  0  0  0  0
  7  9  1  0  0  0  0
M  END
