6116
 OpenBabel10141417473D

  9  6  0  0  0  0  0  0  0  0999 V2000
    0.5259    0.0645    0.4468 Ca  0  2  0  0  0 15  0  0  0  0  0  0
    0.1749    0.3281   -1.7355 O   0  5  0  0  0  0  0  0  0  0  0  0
    2.0474    0.8677    1.5364 O   0  5  0  0  0  0  0  0  0  0  0  0
    1.2344   -1.4171   -1.0423 O   0  0  0  0  0  0  0  0  0  0  0  0
    3.7355    0.0324    0.3443 O   0  0  0  0  0  0  0  0  0  0  0  0
    2.3752    0.0556   -2.5509 C   0  0  0  0  0  0  0  0  0  0  0  0
    4.0658    0.4323    2.6572 C   0  0  0  0  0  0  0  0  0  0  0  0
    1.1534   -0.4789   -1.8925 C   0  0  0  0  0  0  0  0  0  0  0  0
    3.2685    0.4886    1.3957 C   0  0  0  0  0  0  0  0  0  0  0  0
  2  8  1  0  0  0  0
  3  9  1  0  0  0  0
  4  8  2  0  0  0  0
  5  9  2  0  0  0  0
  6  8  1  0  0  0  0
  7  9  1  0  0  0  0
M  CHG  3   1   2   2  -1   3  -1
M  END
