1489
 OpenBabel10141418063D

 26 28  0  0  1  0  0  0  0  0999 V2000
    1.0171    0.1169   -0.6286 Cl  0  0  0  0  0  0  0  0  0  0  0  0
    8.2876    2.6420   -1.9521 O   0  0  0  0  0  0  0  0  0  0  0  0
    9.0559    0.6390   -0.3849 O   0  0  0  0  0  0  0  0  0  0  0  0
    6.7177    3.4554   -3.3809 O   0  0  0  0  0  0  0  0  0  0  0  0
    6.9335   -0.0616    0.1768 N   0  0  0  0  0  0  0  0  0  0  0  0
    6.5911    2.9082   -0.2505 N   0  0  0  0  0  0  0  0  0  0  0  0
    8.9235    4.0423   -3.6325 N   0  0  0  0  0  0  0  0  0  0  0  0
    5.5111    0.0218    0.0394 C   0  0  0  0  0  0  0  0  0  0  0  0
    4.8089    1.2434   -0.0027 C   0  0  0  0  0  0  0  0  0  0  0  0
    5.4832    2.5382    0.2921 C   0  0  0  0  0  0  0  0  0  0  0  0
    7.2249    2.0196   -1.2246 C   0  0  3  0  0  0  0  0  0  0  0  0
    7.8358    0.8374   -0.4275 C   0  0  0  0  0  0  0  0  0  0  0  0
    4.8645    3.4767    1.2839 C   0  0  0  0  0  0  0  0  0  0  0  0
    4.7602   -1.1638   -0.0683 C   0  0  0  0  0  0  0  0  0  0  0  0
    3.4231    1.2721   -0.2426 C   0  0  0  0  0  0  0  0  0  0  0  0
    7.5242   -1.2444    0.7869 C   0  0  0  0  0  0  0  0  0  0  0  0
    3.3754   -1.1355   -0.2670 C   0  0  0  0  0  0  0  0  0  0  0  0
    2.7159    0.0826   -0.3695 C   0  0  0  0  0  0  0  0  0  0  0  0
    4.1362    3.0058    2.3836 C   0  0  0  0  0  0  0  0  0  0  0  0
    5.0586    4.8551    1.1235 C   0  0  0  0  0  0  0  0  0  0  0  0
    3.5800    3.9093    3.2921 C   0  0  0  0  0  0  0  0  0  0  0  0
    4.5053    5.7541    2.0366 C   0  0  0  0  0  0  0  0  0  0  0  0
    7.8817    3.3838   -3.0095 C   0  0  0  0  0  0  0  0  0  0  0  0
    3.7607    5.2809    3.1159 C   0  0  0  0  0  0  0  0  0  0  0  0
   10.3091    3.9139   -3.2195 C   0  0  0  0  0  0  0  0  0  0  0  0
    8.6468    4.8685   -4.7895 C   0  0  0  0  0  0  0  0  0  0  0  0
  1 18  1  0  0  0  0
  2 11  1  0  0  0  0
  2 23  1  0  0  0  0
  3 12  2  0  0  0  0
  4 23  2  0  0  0  0
  5  8  1  0  0  0  0
  5 12  1  0  0  0  0
  5 16  1  0  0  0  0
  6 10  2  0  0  0  0
  6 11  1  0  0  0  0
  7 23  1  0  0  0  0
  7 25  1  0  0  0  0
  7 26  1  0  0  0  0
  8  9  2  0  0  0  0
  8 14  1  0  0  0  0
  9 10  1  0  0  0  0
  9 15  1  0  0  0  0
 10 13  1  0  0  0  0
 11 12  1  0  0  0  0
 13 19  2  0  0  0  0
 13 20  1  0  0  0  0
 14 17  2  0  0  0  0
 15 18  2  0  0  0  0
 17 18  1  0  0  0  0
 19 21  1  0  0  0  0
 20 22  2  0  0  0  0
 21 24  2  0  0  0  0
 22 24  1  0  0  0  0
M  END
