
 OpenBabel10141417483D

 37 40  0  0  1  0  0  0  0  0999 V2000
   -1.4586    4.0533   -3.4543 C   0  0  0  0  0  0  0  0  0  0  0  0
   -2.7821    1.7205   -0.6977 C   0  0  0  0  0  0  0  0  0  0  0  0
   -0.4422    3.3275   -2.3549 C   0  0  0  0  0  0  0  0  0  0  0  0
   -1.9190    1.0127   -1.6216 C   0  0  1  0  0  0  0  0  0  0  0  0
   -0.5291    1.7163   -1.8941 C   0  0  0  0  0  0  0  0  0  0  0  0
   -2.1078    3.4080   -4.4981 N   0  0  0  0  0  0  0  0  0  0  0  0
   -0.2698    1.8163   -8.0989 C   0  0  0  0  0  0  0  0  0  0  0  0
   -2.7318    3.0897   -0.5767 O   0  0  0  0  0  0  0  0  0  0  0  0
   -3.0869    4.4720   -0.0550 C   0  0  0  0  0  0  0  0  0  0  0  0
   -0.9265    1.0654   -6.9003 C   0  0  2  0  0  0  0  0  0  0  0  0
   -1.5851    5.2872   -3.4816 O   0  0  0  0  0  0  0  0  0  0  0  0
   -3.7329    1.0813   -0.0364 O   0  0  0  0  0  0  0  0  0  0  0  0
    0.6443    2.7812   -7.8354 O   0  0  0  0  0  0  0  0  0  0  0  0
   -2.5275    1.0914   -6.7164 C   0  0  0  0  0  0  0  0  0  0  0  0
   -0.1046    1.1090   -5.6426 C   0  0  0  0  0  0  0  0  0  0  0  0
   -2.3223    2.0184   -4.4483 C   0  0  1  0  0  0  0  0  0  0  0  0
   -0.4841    1.5498   -9.2778 O   0  0  0  0  0  0  0  0  0  0  0  0
   -3.2167    1.2706   -5.3598 C   0  0  0  0  0  0  0  0  0  0  0  0
   -0.9953    1.3047   -4.4766 C   0  0  0  0  0  0  0  0  0  0  0  0
   -1.9039   -0.5783   -1.8347 C   0  0  0  0  0  0  0  0  0  0  0  0
   -0.4914    4.1351   -1.0605 C   0  0  0  0  0  0  0  0  0  0  0  0
    1.0141    3.7502   -2.7796 C   0  0  0  0  0  0  0  0  0  0  0  0
   -0.9380   -1.2073   -1.0197 O   0  0  0  0  0  0  0  0  0  0  0  0
   -0.3740   -3.0392    1.1746 O   0  0  0  0  0  0  0  0  0  0  0  0
   -0.2751   -1.6212    1.2939 C   0  0  0  0  0  0  0  0  0  0  0  0
   -1.2404   -0.9299    0.3383 C   0  0  0  0  0  0  0  0  0  0  0  0
    0.4507   -3.8389    2.0175 C   0  0  0  0  0  0  0  0  0  0  0  0
    0.8404    4.2693   -0.4252 C   0  0  0  0  0  0  0  0  0  0  0  0
    1.6662    4.5475   -1.6260 C   0  0  0  0  0  0  0  0  0  0  0  0
   -4.0364    5.0895   -0.8460 C   0  0  0  0  0  0  0  0  0  0  0  0
   -4.5871    6.2679   -0.3660 C   0  0  0  0  0  0  0  0  0  0  0  0
   -2.4278    5.1480    1.0338 C   0  0  0  0  0  0  0  0  0  0  0  0
   -4.1159    6.8284    0.8392 C   0  0  0  0  0  0  0  0  0  0  0  0
   -2.9882    6.3342    1.5124 C   0  0  0  0  0  0  0  0  0  0  0  0
   -4.7904    7.8818    1.6735 C   0  0  0  0  0  0  0  0  0  0  0  0
   -4.1717    7.6363    3.0619 C   0  0  0  0  0  0  0  0  0  0  0  0
   -2.7427    7.1221    2.7977 C   0  0  0  0  0  0  0  0  0  0  0  0
  3  1  1  0  0  0  0
  4 20  1  1  0  0  0
  4  5  1  0  0  0  0
  4  2  1  0  0  0  0
  5  3  1  0  0  0  0
  6  1  1  0  0  0  0
  8  2  1  0  0  0  0
  9  8  1  0  0  0  0
  9 30  1  0  0  0  0
 10 15  1  0  0  0  0
 10 14  1  0  0  0  0
 10  7  1  6  0  0  0
 11  1  2  0  0  0  0
 12  2  2  0  0  0  0
 13  7  1  0  0  0  0
 14 18  1  0  0  0  0
 15 19  1  0  0  0  0
 16  6  1  6  0  0  0
 17  7  2  0  0  0  0
 18 16  1  0  0  0  0
 19 16  1  0  0  0  0
 21  3  1  0  0  0  0
 22  3  1  0  0  0  0
 23 20  1  0  0  0  0
 24 25  1  0  0  0  0
 25 26  1  0  0  0  0
 26 23  1  0  0  0  0
 27 24  1  0  0  0  0
 28 21  1  0  0  0  0
 28 29  1  0  0  0  0
 29 22  1  0  0  0  0
 31 30  2  0  0  0  0
 32  9  2  0  0  0  0
 33 31  1  0  0  0  0
 34 32  1  0  0  0  0
 34 33  2  0  0  0  0
 35 33  1  0  0  0  0
 36 35  1  0  0  0  0
 37 34  1  0  0  0  0
 37 36  1  0  0  0  0
M  END
