
 OpenBabel10141417483D

 24 25  0  0  0  0  0  0  0  0999 V2000
    2.5038    0.9237   -7.1403 C   0  0  0  0  0  0  0  0  0  0  0  0
    9.0311    8.0202    3.2578 C   0  0  0  0  0  0  0  0  0  0  0  0
    7.9946    9.7589    1.9521 C   0  0  0  0  0  0  0  0  0  0  0  0
    2.3782   -0.2152   -6.1356 C   0  0  0  0  0  0  0  0  0  0  0  0
    2.0065    0.2203   -4.7078 C   0  0  0  0  0  0  0  0  0  0  0  0
    6.2433    9.4433   -2.4777 C   0  0  0  0  0  0  0  0  0  0  0  0
    6.9640    8.5634   -3.2843 C   0  0  0  0  0  0  0  0  0  0  0  0
    5.8073    9.0263   -1.2254 C   0  0  0  0  0  0  0  0  0  0  0  0
    7.2532    7.2795   -2.8210 C   0  0  0  0  0  0  0  0  0  0  0  0
    6.1249    7.7505   -0.7467 C   0  0  0  0  0  0  0  0  0  0  0  0
    6.1351    3.8102   -2.5613 C   0  0  0  0  0  0  0  0  0  0  0  0
    5.1618    4.1895   -0.4005 C   0  0  0  0  0  0  0  0  0  0  0  0
    5.0959    2.9383   -2.8629 C   0  0  0  0  0  0  0  0  0  0  0  0
    4.1035    3.3090   -0.7111 C   0  0  0  0  0  0  0  0  0  0  0  0
    9.0902    7.9328    0.8347 C   0  0  0  0  0  0  0  0  0  0  0  0
    3.0595    1.1227   -4.0766 C   0  0  0  0  0  0  0  0  0  0  0  0
    9.3834    6.4286    0.6970 C   0  0  0  0  0  0  0  0  0  0  0  0
    6.8908    6.8643   -1.5276 C   0  0  0  0  0  0  0  0  0  0  0  0
    6.1904    4.4551   -1.3259 C   0  0  0  0  0  0  0  0  0  0  0  0
    4.0570    2.6796   -1.9527 C   0  0  0  0  0  0  0  0  0  0  0  0
    7.3021    5.4726   -1.0478 C   0  0  3  0  0  0  0  0  0  0  0  0
    8.3059    8.3310    2.0256 N   0  0  0  0  0  0  0  0  0  0  0  0
    2.6769    1.5976   -2.3473 S   0  0  0  0  0  0  0  0  0  0  0  0
    7.9214    5.3350    0.6813 S   0  0  0  0  0  0  0  0  0  0  0  0
  4  1  1  0  0  0  0
  5  4  1  0  0  0  0
  7  6  2  0  0  0  0
  8  6  1  0  0  0  0
  9  7  1  0  0  0  0
 10  8  2  0  0  0  0
 13 11  1  0  0  0  0
 14 12  2  0  0  0  0
 16  5  1  0  0  0  0
 17 15  1  0  0  0  0
 18  9  2  0  0  0  0
 18 10  1  0  0  0  0
 19 11  2  0  0  0  0
 19 12  1  0  0  0  0
 20 13  2  0  0  0  0
 20 14  1  0  0  0  0
 21 18  1  0  0  0  0
 21 19  1  0  0  0  0
 22  2  1  0  0  0  0
 22  3  1  0  0  0  0
 22 15  1  0  0  0  0
 23 16  1  0  0  0  0
 23 20  1  0  0  0  0
 24 17  1  0  0  0  0
 24 21  1  0  0  0  0
M  END
