748
 OpenBabel10141417493D

 20 21  0  0  1  0  0  0  0  0999 V2000
    1.0724   -0.7003   -2.8481 Cl  0  0  0  0  0  0  0  0  0  0  0  0
    6.6291   -1.3570    0.9517 O   0  0  0  0  0  0  0  0  0  0  0  0
    8.9839   -1.1406    3.9104 N   0  0  0  0  0  0  0  0  0  0  0  0
    8.0677   -1.7013   -2.4187 N   0  0  0  0  0  0  0  0  0  0  0  0
    6.6612   -1.1151   -0.4773 C   0  0  3  0  0  0  0  0  0  0  0  0
    7.8994   -1.1259    1.5934 C   0  0  0  0  0  0  0  0  0  0  0  0
    7.7420   -1.2817    3.1200 C   0  0  0  0  0  0  0  0  0  0  0  0
    5.2351   -1.0435   -1.0544 C   0  0  0  0  0  0  0  0  0  0  0  0
    7.5288   -2.1178   -1.2445 C   0  0  0  0  0  0  0  0  0  0  0  0
    4.1253   -1.6212   -0.4164 C   0  0  0  0  0  0  0  0  0  0  0  0
    5.0181   -0.3857   -2.2842 C   0  0  0  0  0  0  0  0  0  0  0  0
    7.7550   -3.4059   -0.7438 C   0  0  0  0  0  0  0  0  0  0  0  0
    9.6052    0.1764    3.7515 C   0  0  0  0  0  0  0  0  0  0  0  0
    8.6947   -1.3602    5.3338 C   0  0  0  0  0  0  0  0  0  0  0  0
    2.8411   -1.5176   -0.9737 C   0  0  0  0  0  0  0  0  0  0  0  0
    3.7382   -0.2844   -2.8423 C   0  0  0  0  0  0  0  0  0  0  0  0
    2.6526   -0.8450   -2.1788 C   0  0  0  0  0  0  0  0  0  0  0  0
    8.5533   -4.2833   -1.4751 C   0  0  0  0  0  0  0  0  0  0  0  0
    8.8145   -2.5867   -3.1197 C   0  0  0  0  0  0  0  0  0  0  0  0
    9.0756   -3.8784   -2.6886 C   0  0  0  0  0  0  0  0  0  0  0  0
  1 17  1  0  0  0  0
  2  5  1  0  0  0  0
  2  6  1  0  0  0  0
  3  7  1  0  0  0  0
  3 13  1  0  0  0  0
  3 14  1  0  0  0  0
  4  9  1  0  0  0  0
  4 19  2  0  0  0  0
  5  8  1  0  0  0  0
  5  9  1  0  0  0  0
  6  7  1  0  0  0  0
  8 10  2  0  0  0  0
  8 11  1  0  0  0  0
  9 12  2  0  0  0  0
 10 15  1  0  0  0  0
 11 16  2  0  0  0  0
 12 18  1  0  0  0  0
 15 17  2  0  0  0  0
 16 17  1  0  0  0  0
 18 20  2  0  0  0  0
 19 20  1  0  0  0  0
M  END
