
 OpenBabel10141417523D

 13 12  0  0  0  0  0  0  0  0999 V2000
    2.0474   -0.0015    1.6018 C   0  0  0  0  0  0  0  0  0  0  0  0
    2.7357    0.4689    0.3169 C   0  0  0  0  0  0  0  0  0  0  0  0
    1.5337   -0.0817   -0.4489 C   0  0  0  0  0  0  0  0  0  0  0  0
    0.6999    0.0487    0.8478 C   0  0  0  0  0  0  0  0  0  0  0  0
   -1.1540    1.6377    0.3474 O   0  0  0  0  0  0  0  0  0  0  0  0
    0.0069    1.3916    0.9847 C   0  0  0  0  0  0  0  0  0  0  0  0
   -0.2755   -1.0594    1.1521 C   0  0  0  0  0  0  0  0  0  0  0  0
   -1.4207   -1.1783    0.4543 O   0  0  0  0  0  0  0  0  0  0  0  0
   -2.1667    0.2715   -0.6333 Pt  0  0  0  0  0  0  0  0  0  0  0  0
    0.4889    2.2709    1.6893 O   0  0  0  0  0  0  0  0  0  0  0  0
   -0.0283   -1.8708    2.0303 O   0  0  0  0  0  0  0  0  0  0  0  0
    0.6899   -3.4318   -1.0039 N   0  0  0  0  0  0  0  0  0  0  0  0
    0.1900    2.6464   -2.1528 N   0  0  0  0  0  0  0  0  0  0  0  0
  1  2  1  0  0  0  0
  2  3  1  0  0  0  0
  3  4  1  0  0  0  0
  4  7  1  0  0  0  0
  4  1  1  0  0  0  0
  5  6  1  0  0  0  0
  6  4  1  0  0  0  0
  6 10  2  0  0  0  0
  7  8  1  0  0  0  0
  7 11  2  0  0  0  0
  8  9  1  0  0  0  0
  9  5  1  0  0  0  0
M  END
