564
 OpenBabel10141417503D

 18 20  0  0  0  0  0  0  0  0999 V2000
    2.1615   -1.4115   -0.6239 O   0  0  0  0  0  0  0  0  0  0  0  0
    3.1500    0.7058   -0.9194 N   0  0  0  0  0  0  0  0  0  0  0  0
    2.9441   -0.3570    1.1604 N   0  0  0  0  0  0  0  0  0  0  0  0
    4.1292    1.6405   -0.4290 C   0  0  0  0  0  0  0  0  0  0  0  0
    2.9165    0.7756   -2.3388 C   0  0  0  0  0  0  0  0  0  0  0  0
    4.0001    3.0328   -0.5913 C   0  0  0  0  0  0  0  0  0  0  0  0
    2.5142    1.9656   -2.9791 C   0  0  0  0  0  0  0  0  0  0  0  0
    2.8279    3.6707   -1.1950 C   0  0  0  0  0  0  0  0  0  0  0  0
    2.1717    3.1971   -2.2592 C   0  0  0  0  0  0  0  0  0  0  0  0
    5.2714    1.1458    0.2339 C   0  0  0  0  0  0  0  0  0  0  0  0
    3.0901   -0.3785   -3.1279 C   0  0  0  0  0  0  0  0  0  0  0  0
    4.9874    3.8869   -0.0660 C   0  0  0  0  0  0  0  0  0  0  0  0
    2.3012    1.9703   -4.3707 C   0  0  0  0  0  0  0  0  0  0  0  0
    2.7445   -0.4193   -0.1918 C   0  0  0  0  0  0  0  0  0  0  0  0
    6.2509    2.0034    0.7373 C   0  0  0  0  0  0  0  0  0  0  0  0
    2.8867   -0.3573   -4.5095 C   0  0  0  0  0  0  0  0  0  0  0  0
    6.1071    3.3761    0.5895 C   0  0  0  0  0  0  0  0  0  0  0  0
    2.4946    0.8193   -5.1324 C   0  0  0  0  0  0  0  0  0  0  0  0
  1 14  2  0  0  0  0
  2  4  1  0  0  0  0
  2  5  1  0  0  0  0
  2 14  1  0  0  0  0
  3 14  1  0  0  0  0
  4  6  1  0  0  0  0
  4 10  2  0  0  0  0
  5  7  1  0  0  0  0
  5 11  2  0  0  0  0
  6  8  1  0  0  0  0
  6 12  2  0  0  0  0
  7  9  1  0  0  0  0
  7 13  2  0  0  0  0
  8  9  2  0  0  0  0
 10 15  1  0  0  0  0
 11 16  1  0  0  0  0
 12 17  1  0  0  0  0
 13 18  1  0  0  0  0
 15 17  2  0  0  0  0
 16 18  2  0  0  0  0
M  END
