389
 OpenBabel10141417503D

 12 12  0  0  0  0  0  0  0  0999 V2000
    1.3036   -2.7880   -0.0924 S   0  0  0  0  0  0  0  0  0  0  0  0
    0.8041    0.2331    0.0272 O   0  0  0  0  0  0  0  0  0  0  0  0
    2.4995    1.7542    0.0412 O   0  0  0  0  0  0  0  0  0  0  0  0
    4.0534   -2.5223   -0.0405 N   0  0  0  0  0  0  0  0  0  0  0  0
    2.9837   -0.5159   -0.0122 N   0  0  0  0  0  0  0  0  0  0  0  0
    2.7425   -1.9528   -0.0470 C   0  0  0  0  0  0  0  0  0  0  0  0
    4.3621   -0.3318   -0.0032 C   0  0  0  0  0  0  0  0  0  0  0  0
    4.9875   -1.5108   -0.0239 C   0  0  0  0  0  0  0  0  0  0  0  0
    4.4163   -3.9245   -0.0834 C   0  0  0  0  0  0  0  0  0  0  0  0
    2.1165    0.5855    0.0158 C   0  0  0  0  0  0  0  0  0  0  0  0
   -0.1496    1.2993    0.0998 C   0  0  0  0  0  0  0  0  0  0  0  0
   -0.3323    1.7369    1.5402 C   0  0  0  0  0  0  0  0  0  0  0  0
  1  6  2  0  0  0  0
  2 10  1  0  0  0  0
  2 11  1  0  0  0  0
  3 10  2  0  0  0  0
  4  6  1  0  0  0  0
  4  8  1  0  0  0  0
  4  9  1  0  0  0  0
  5  6  1  0  0  0  0
  5  7  1  0  0  0  0
  5 10  1  0  0  0  0
  7  8  2  0  0  0  0
 11 12  1  0  0  0  0
M  END
