
 OpenBabel10141417523D

 69 71  0  0  1  0  0  0  0  0999 V2000
    3.5879    7.4440   10.5820 N   0  0  0  0  0  0  0  0  0  0  0  0
    2.8220    8.2642    9.7960 C   0  0  0  0  0  0  0  0  0  0  0  0
    2.9496    8.0794    8.2846 C   0  0  0  0  0  0  0  0  0  0  0  0
    1.6916    8.4693    7.6453 N   0  0  0  0  0  0  0  0  0  0  0  0
    0.9123    7.5191    7.0120 C   0  0  0  0  0  0  0  0  0  0  0  0
   -0.5883    7.9075    6.7593 C   0  0  1  0  0  0  0  0  0  0  0  0
   -0.8303    9.1751    6.0025 N   0  0  0  0  0  0  0  0  0  0  0  0
   -0.5202    9.4208    4.6724 C   0  0  0  0  0  0  0  0  0  0  0  0
    0.0895    8.5715    4.0087 O   0  0  0  0  0  0  0  0  0  0  0  0
    2.1156    9.1231   10.3051 O   0  0  0  0  0  0  0  0  0  0  0  0
    1.3793    6.4029    6.8326 O   0  0  0  0  0  0  0  0  0  0  0  0
   -1.6299    6.7304    6.6041 C   0  0  0  0  0  0  0  0  0  0  0  0
   -1.5976    5.7311    5.4148 C   0  0  0  0  0  0  0  0  0  0  0  0
   -0.3871    4.8006    5.3872 C   0  0  0  0  0  0  0  0  0  0  0  0
   -0.8688   10.8657    4.0637 C   0  0  2  0  0  0  0  0  0  0  0  0
   -2.1931   11.4295    4.5858 C   0  0  0  0  0  0  0  0  0  0  0  0
   -1.0876   10.9274    2.5836 N   0  0  0  0  0  0  0  0  0  0  0  0
   -3.2488   10.9818    3.5741 C   0  0  0  0  0  0  0  0  0  0  0  0
   -2.4827   10.6429    2.2934 C   0  0  0  0  0  0  0  0  0  0  0  0
   -0.2050   11.5595    1.7033 C   0  0  0  0  0  0  0  0  0  0  0  0
   -0.4870   11.5491    0.1457 C   0  0  1  0  0  0  0  0  0  0  0  0
    0.1555   12.7141   -0.4979 N   0  0  0  0  0  0  0  0  0  0  0  0
   -0.4910   13.5130   -1.4326 C   0  0  0  0  0  0  0  0  0  0  0  0
    0.4708   14.4172   -2.2439 C   0  0  1  0  0  0  0  0  0  0  0  0
    0.9964   13.4878   -3.2606 N   0  0  0  0  0  0  0  0  0  0  0  0
    0.8413   12.0702    2.1220 O   0  0  0  0  0  0  0  0  0  0  0  0
    0.0727   10.2222   -0.4321 C   0  0  0  0  0  0  0  0  0  0  0  0
    0.1660   10.0715   -2.2641 S   0  0  0  0  0  0  0  0  0  0  0  0
    1.1531    8.5388   -2.4090 C   0  0  0  0  0  0  0  0  0  0  0  0
   -1.6749   13.3624   -1.7245 O   0  0  0  0  0  0  0  0  0  0  0  0
   -0.1970   15.6425   -2.8712 C   0  0  0  0  0  0  0  0  0  0  0  0
   -0.6907   16.6121   -1.8231 C   0  0  0  0  0  0  0  0  0  0  0  0
   -1.4995   16.3187   -0.9376 O   0  0  0  0  0  0  0  0  0  0  0  0
   -0.2204   17.8859   -1.9059 N   0  0  0  0  0  0  0  0  0  0  0  0
    2.2316   13.5961   -3.8447 C   0  0  0  0  0  0  0  0  0  0  0  0
    2.6338   12.3877   -4.7488 C   0  0  2  0  0  0  0  0  0  0  0  0
    2.9416   14.5843   -3.7116 O   0  0  0  0  0  0  0  0  0  0  0  0
    3.9934   11.8449   -4.2568 C   0  0  0  0  0  0  0  0  0  0  0  0
    4.5300   10.6128   -4.9937 C   0  0  0  0  0  0  0  0  0  0  0  0
    4.8266   10.8422   -6.4707 C   0  0  0  0  0  0  0  0  0  0  0  0
    3.7945   10.4749   -7.3088 N   0  0  0  0  0  0  0  0  0  0  0  0
    5.8501   11.3035   -6.8894 O   0  0  0  0  0  0  0  0  0  0  0  0
    2.7618   12.9057   -6.1029 N   0  0  0  0  0  0  0  0  0  0  0  0
   -0.4039   14.8861   -8.4360 C   0  0  0  0  0  0  0  0  0  0  0  0
   -0.7169   13.5178   -7.7803 C   0  0  1  0  0  0  0  0  0  0  0  0
    0.5632   12.6648   -7.3890 C   0  0  1  0  0  0  0  0  0  0  0  0
    1.7002   13.5029   -6.7201 C   0  0  0  0  0  0  0  0  0  0  0  0
   -1.6210   15.6352   -8.9687 C   0  0  0  0  0  0  0  0  0  0  0  0
   -0.9627    8.7703   -6.5406 N   0  0  0  0  0  0  0  0  0  0  0  0
   -0.1332    7.8622   -5.9420 C   0  0  0  0  0  0  0  0  0  0  0  0
    0.9404    8.3245   -4.9848 C   0  0  0  0  0  0  0  0  0  0  0  0
    0.8112    7.6541   -3.6173 C   0  0  0  0  0  0  0  0  0  0  0  0
   -0.5740   11.1165   -5.7534 C   0  0  0  0  0  0  0  0  0  0  0  0
   -0.5845   11.9109   -4.8075 O   0  0  0  0  0  0  0  0  0  0  0  0
   -1.5793    9.9520   -5.9081 C   0  0  2  0  0  0  0  0  0  0  0  0
    0.2205   11.3193   -6.8684 N   0  0  0  0  0  0  0  0  0  0  0  0
    1.8812   14.6956   -6.9586 O   0  0  0  0  0  0  0  0  0  0  0  0
   -2.4739    9.6788   -4.6719 C   0  0  0  0  0  0  0  0  0  0  0  0
   -4.9959    9.2634   -4.7745 C   0  0  0  0  0  0  0  0  0  0  0  0
   -3.6830    8.8088   -4.9617 C   0  0  0  0  0  0  0  0  0  0  0  0
   -6.0914    8.4327   -5.0778 C   0  0  0  0  0  0  0  0  0  0  0  0
   -5.8818    7.1481   -5.5879 C   0  0  0  0  0  0  0  0  0  0  0  0
   -3.5050    7.4943   -5.3904 C   0  0  0  0  0  0  0  0  0  0  0  0
   -4.5801    6.6863   -5.7187 C   0  0  0  0  0  0  0  0  0  0  0  0
   -0.2386    6.6773   -6.2601 O   0  0  0  0  0  0  0  0  0  0  0  0
   -6.9707    6.3784   -5.9065 O   0  0  0  0  0  0  0  0  0  0  0  0
   -2.8358    4.8030    5.3623 C   0  0  0  0  0  0  0  0  0  0  0  0
   -1.6595   13.7621   -6.5997 C   0  0  0  0  0  0  0  0  0  0  0  0
   -6.7060    5.3971   -6.9171 C   0  0  0  0  0  0  0  0  0  0  0  0
  2  1  1  0  0  0  0
  3  2  1  0  0  0  0
  4  3  1  0  0  0  0
  5  4  1  0  0  0  0
  6  5  1  6  0  0  0
  6 12  1  0  0  0  0
  7  6  1  0  0  0  0
  8  7  1  0  0  0  0
  9  8  2  0  0  0  0
 10  2  2  0  0  0  0
 11  5  2  0  0  0  0
 13 12  1  0  0  0  0
 14 13  1  0  0  0  0
 15  8  1  1  0  0  0
 16 15  1  0  0  0  0
 17 15  1  0  0  0  0
 18 16  1  0  0  0  0
 19 17  1  0  0  0  0
 19 18  1  0  0  0  0
 20 17  1  0  0  0  0
 21 20  1  1  0  0  0
 21 22  1  0  0  0  0
 23 22  1  0  0  0  0
 24 23  1  0  0  0  0
 24 31  1  6  0  0  0
 25 24  1  0  0  0  0
 26 20  2  0  0  0  0
 27 21  1  0  0  0  0
 28 27  1  0  0  0  0
 29 28  1  0  0  0  0
 30 23  2  0  0  0  0
 32 31  1  0  0  0  0
 33 32  2  0  0  0  0
 34 32  1  0  0  0  0
 35 25  1  0  0  0  0
 36 35  1  0  0  0  0
 36 38  1  1  0  0  0
 37 35  2  0  0  0  0
 39 38  1  0  0  0  0
 40 39  1  0  0  0  0
 41 40  1  0  0  0  0
 42 40  2  0  0  0  0
 43 36  1  0  0  0  0
 45 68  1  1  0  0  0
 45 46  1  0  0  0  0
 45 44  1  0  0  0  0
 46 56  1  1  0  0  0
 47 43  1  0  0  0  0
 47 46  1  0  0  0  0
 48 44  1  0  0  0  0
 50 49  1  0  0  0  0
 51 50  1  0  0  0  0
 52 29  1  0  0  0  0
 52 51  1  0  0  0  0
 54 53  2  0  0  0  0
 55 49  1  0  0  0  0
 55 53  1  0  0  0  0
 55 58  1  1  0  0  0
 56 53  1  0  0  0  0
 57 47  2  0  0  0  0
 60 58  1  0  0  0  0
 60 59  1  0  0  0  0
 61 59  2  0  0  0  0
 62 61  1  0  0  0  0
 63 60  2  0  0  0  0
 64 62  2  0  0  0  0
 64 63  1  0  0  0  0
 65 50  2  0  0  0  0
 66 62  1  0  0  0  0
 67 13  1  0  0  0  0
 69 66  1  0  0  0  0
M  END
