
 OpenBabel10141418323D

 52 55  0  0  1  0  0  0  0  0999 V2000
   -8.3361   -6.8366   -3.2466 C   0  0  0  0  0  0  0  0  0  0  0  0
   -6.9529   -6.6270   -2.8194 C   0  0  0  0  0  0  0  0  0  0  0  0
   -5.7375   -7.0861   -2.7990 N   0  0  0  0  0  0  0  0  0  0  0  0
   -4.1572   -6.6520   -2.5174 C   0  0  2  0  0  0  0  0  0  0  0  0
   -3.5380   -5.3734   -1.7646 C   0  0  0  0  0  0  0  0  0  0  0  0
   -4.1957   -4.2141   -1.6659 N   0  0  0  0  0  0  0  0  0  0  0  0
   -5.6534   -4.2652   -1.7634 C   0  0  2  0  0  0  0  0  0  0  0  0
   -6.1590   -5.4225   -0.3267 C   0  0  0  0  0  0  0  0  0  0  0  0
   -5.7247   -6.8279   -0.1128 N   0  0  0  0  0  0  0  0  0  0  0  0
   -6.3741   -8.1783    0.4798 C   0  0  2  0  0  0  0  0  0  0  0  0
   -6.3911   -8.4438    2.0303 C   0  0  0  0  0  0  0  0  0  0  0  0
   -5.3472   -8.4949    2.8885 N   0  0  0  0  0  0  0  0  0  0  0  0
   -3.8892   -8.2625    2.8623 C   0  0  2  0  0  0  0  0  0  0  0  0
   -3.2872   -6.9274    3.4711 C   0  0  0  0  0  0  0  0  0  0  0  0
   -9.0985   -7.7924   -2.4714 N   0  0  0  0  0  0  0  0  0  0  0  0
   -3.3167   -6.6608    4.9871 C   0  0  2  0  0  0  0  0  0  0  0  0
  -10.4999   -7.6788   -2.8508 C   0  0  0  0  0  0  0  0  0  0  0  0
  -11.1606   -6.3942   -2.3084 C   0  0  0  0  0  0  0  0  0  0  0  0
  -11.0487   -6.3025   -0.8801 O   0  0  0  0  0  0  0  0  0  0  0  0
   -9.6747   -6.2588   -0.5085 C   0  0  0  0  0  0  0  0  0  0  0  0
   -8.9832   -7.4921   -1.0615 C   0  0  0  0  0  0  0  0  0  0  0  0
   -2.6391   -6.1423    2.7777 O   0  0  0  0  0  0  0  0  0  0  0  0
   -7.4691   -8.7921    2.5566 O   0  0  0  0  0  0  0  0  0  0  0  0
   -7.0678   -5.0337    0.4343 O   0  0  0  0  0  0  0  0  0  0  0  0
   -2.3381   -5.3505   -1.4215 O   0  0  0  0  0  0  0  0  0  0  0  0
   -7.2868   -5.3719   -2.2026 O   0  0  0  0  0  0  0  0  0  0  0  0
   -6.1919   -9.6015   -0.3957 C   0  0  0  0  0  0  0  0  0  0  0  0
   -3.2816   -6.7748   -3.8005 C   0  0  0  0  0  0  0  0  0  0  0  0
   -3.2977   -8.6355    1.4832 C   0  0  0  0  0  0  0  0  0  0  0  0
   -5.9651   -3.9946   -3.5456 C   0  0  0  0  0  0  0  0  0  0  0  0
   -4.6309   -6.3950    5.4971 O   0  0  0  0  0  0  0  0  0  0  0  0
   -3.7771   -5.2484    5.4152 C   0  0  0  0  0  0  0  0  0  0  0  0
   -6.1387   -9.9283   -1.9048 C   0  0  0  0  0  0  0  0  0  0  0  0
   -3.6362   -7.9784   -4.7155 C   0  0  0  0  0  0  0  0  0  0  0  0
   -4.9803   -7.9456   -5.4321 C   0  0  0  0  0  0  0  0  0  0  0  0
   -5.7082   -6.7861   -5.4006 C   0  0  0  0  0  0  0  0  0  0  0  0
   -7.0301   -6.5673   -5.7434 C   0  0  0  0  0  0  0  0  0  0  0  0
   -7.7472   -7.6862   -6.0982 C   0  0  0  0  0  0  0  0  0  0  0  0
   -7.0610   -8.8869   -6.2199 C   0  0  0  0  0  0  0  0  0  0  0  0
   -5.6697   -8.9858   -5.9782 C   0  0  0  0  0  0  0  0  0  0  0  0
   -4.9328  -10.3051   -2.5205 C   0  0  0  0  0  0  0  0  0  0  0  0
   -4.9283  -11.0650   -3.7057 C   0  0  0  0  0  0  0  0  0  0  0  0
   -6.1270  -11.4659   -4.2951 C   0  0  0  0  0  0  0  0  0  0  0  0
   -7.3208  -10.9721   -3.7932 C   0  0  0  0  0  0  0  0  0  0  0  0
   -7.3171  -10.2029   -2.6255 C   0  0  0  0  0  0  0  0  0  0  0  0
   -5.1853   -3.1693   -4.6867 C   0  0  0  0  0  0  0  0  0  0  0  0
   -5.3488   -3.5510   -6.2374 C   0  0  0  0  0  0  0  0  0  0  0  0
   -5.6004   -1.7333   -4.5364 C   0  0  0  0  0  0  0  0  0  0  0  0
   -1.8885   -9.2705    1.4684 C   0  0  0  0  0  0  0  0  0  0  0  0
   -0.8409   -8.6376    2.3843 C   0  0  0  0  0  0  0  0  0  0  0  0
   -1.9667  -10.7628    1.8224 C   0  0  0  0  0  0  0  0  0  0  0  0
   -2.4274   -7.3993    5.9771 C   0  0  0  0  0  0  0  0  0  0  0  0
  1  2  1  0  0  0  0
  1 15  1  0  0  0  0
  2  3  1  0  0  0  0
  2 26  2  0  0  0  0
  4 28  1  6  0  0  0
  4  5  1  0  0  0  0
  4  3  1  0  0  0  0
  5  6  1  0  0  0  0
  5 25  2  0  0  0  0
  7 30  1  6  0  0  0
  7  8  1  0  0  0  0
  7  6  1  0  0  0  0
  8  9  1  0  0  0  0
  8 24  2  0  0  0  0
 10 27  1  6  0  0  0
 10 11  1  0  0  0  0
 10  9  1  0  0  0  0
 11 12  1  0  0  0  0
 11 23  2  0  0  0  0
 13 29  1  6  0  0  0
 13 14  1  0  0  0  0
 13 12  1  0  0  0  0
 14 22  2  0  0  0  0
 15 17  1  0  0  0  0
 15 21  1  0  0  0  0
 16 14  1  6  0  0  0
 16 31  1  0  0  0  0
 16 32  1  0  0  0  0
 16 52  1  0  0  0  0
 17 18  1  0  0  0  0
 18 19  1  0  0  0  0
 19 20  1  0  0  0  0
 20 21  1  0  0  0  0
 27 33  1  0  0  0  0
 28 34  1  0  0  0  0
 29 49  1  0  0  0  0
 30 46  1  0  0  0  0
 31 32  1  0  0  0  0
 33 41  2  0  0  0  0
 33 45  1  0  0  0  0
 34 35  1  0  0  0  0
 35 36  2  0  0  0  0
 35 40  1  0  0  0  0
 36 37  1  0  0  0  0
 37 38  2  0  0  0  0
 38 39  1  0  0  0  0
 39 40  2  0  0  0  0
 41 42  1  0  0  0  0
 42 43  2  0  0  0  0
 43 44  1  0  0  0  0
 44 45  2  0  0  0  0
 46 47  1  0  0  0  0
 46 48  1  0  0  0  0
 49 50  1  0  0  0  0
 49 51  1  0  0  0  0
M  END
