262
 OpenBabel10141417473D

 12 11  0  0  0  0  0  0  0  0999 V2000
    0.7831    0.7119    0.9681 Cl  0  0  0  0  0  0  0  0  0  0  0  0
    8.4736   -1.3844    1.1737 Cl  0  0  0  0  0  0  0  0  0  0  0  0
    5.2504    2.0548    1.1101 O   0  0  0  0  0  0  0  0  0  0  0  0
    3.8890    0.0376   -2.6833 O   0  0  0  0  0  0  0  0  0  0  0  0
    4.4615    0.9236   -0.7403 N   0  0  0  0  0  0  0  0  0  0  0  0
    6.7526    0.9404   -0.1839 N   0  0  0  0  0  0  0  0  0  0  0  0
    4.7679    0.0814   -1.8166 N   0  0  0  0  0  0  0  0  0  0  0  0
    3.0670    1.2420   -0.4187 C   0  0  0  0  0  0  0  0  0  0  0  0
    7.8944    1.2453    0.6621 C   0  0  0  0  0  0  0  0  0  0  0  0
    5.4750    1.3486    0.1152 C   0  0  0  0  0  0  0  0  0  0  0  0
    2.4785    0.2854    0.6162 C   0  0  0  0  0  0  0  0  0  0  0  0
    8.1069    0.2462    1.7986 C   0  0  0  0  0  0  0  0  0  0  0  0
  1 11  1  0  0  0  0
  2 12  1  0  0  0  0
  3 10  2  0  0  0  0
  4  7  2  0  0  0  0
  5  7  1  0  0  0  0
  5  8  1  0  0  0  0
  5 10  1  0  0  0  0
  6  9  1  0  0  0  0
  6 10  1  0  0  0  0
  8 11  1  0  0  0  0
  9 12  1  0  0  0  0
M  END
