521
 OpenBabel10141417523D

 21 22  0  0  1  0  0  0  0  0999 V2000
    0.8808   -0.5345   -0.1770 O   0  0  0  0  0  0  0  0  0  0  0  0
   -1.5419    1.8912    1.1511 O   0  0  0  0  0  0  0  0  0  0  0  0
    3.5186   -6.2295   -0.6959 O   0  0  0  0  0  0  0  0  0  0  0  0
   -3.1720    0.8232   -1.0345 N   0  0  0  0  0  0  0  0  0  0  0  0
    4.0280   -4.1405   -0.0235 N   0  0  0  0  0  0  0  0  0  0  0  0
   -3.7380    0.8409   -2.4138 C   0  0  0  0  0  0  0  0  0  0  0  0
   -1.6889    0.7546   -0.9963 C   0  0  0  0  0  0  0  0  0  0  0  0
   -1.1103    0.7265    0.4385 C   0  0  3  0  0  0  0  0  0  0  0  0
   -5.2793    0.8960   -2.3135 C   0  0  0  0  0  0  0  0  0  0  0  0
   -3.2841    2.0860   -3.1979 C   0  0  0  0  0  0  0  0  0  0  0  0
   -3.3761   -0.4342   -3.2000 C   0  0  0  0  0  0  0  0  0  0  0  0
    2.4369   -2.3084   -0.0742 C   0  0  0  0  0  0  0  0  0  0  0  0
    0.4326    0.6840    0.4275 C   0  0  0  0  0  0  0  0  0  0  0  0
    1.3429   -3.3144   -0.3199 C   0  0  0  0  0  0  0  0  0  0  0  0
    2.1644   -0.9387    0.0965 C   0  0  0  0  0  0  0  0  0  0  0  0
    3.7360   -2.7908    0.1570 C   0  0  0  0  0  0  0  0  0  0  0  0
    1.8296   -4.5635   -1.0372 C   0  0  0  0  0  0  0  0  0  0  0  0
    3.1705   -5.0737   -0.5499 C   0  0  0  0  0  0  0  0  0  0  0  0
    3.1909   -0.0805    0.5073 C   0  0  0  0  0  0  0  0  0  0  0  0
    4.7456   -1.9340    0.5885 C   0  0  0  0  0  0  0  0  0  0  0  0
    4.4713   -0.5821    0.7714 C   0  0  0  0  0  0  0  0  0  0  0  0
  1 13  1  0  0  0  0
  1 15  1  0  0  0  0
  2  8  1  0  0  0  0
  3 18  2  0  0  0  0
  4  6  1  0  0  0  0
  4  7  1  0  0  0  0
  5 16  1  0  0  0  0
  5 18  1  0  0  0  0
  6  9  1  0  0  0  0
  6 10  1  0  0  0  0
  6 11  1  0  0  0  0
  7  8  1  0  0  0  0
  8 13  1  0  0  0  0
 12 14  1  0  0  0  0
 12 15  1  0  0  0  0
 12 16  2  0  0  0  0
 14 17  1  0  0  0  0
 15 19  2  0  0  0  0
 16 20  1  0  0  0  0
 17 18  1  0  0  0  0
 19 21  1  0  0  0  0
 20 21  2  0  0  0  0
M  END
