1136
 OpenBabel10141417523D

 30 33  0  0  1  0  0  0  0  0999 V2000
    2.1369   -0.6221   -0.8479 O   0  0  0  0  0  0  0  0  0  0  0  0
    2.3619    2.2645   -1.3846 O   0  0  0  0  0  0  0  0  0  0  0  0
    8.7346    3.6042   -1.8841 O   0  0  0  0  0  0  0  0  0  0  0  0
    8.9673    1.3732   -3.7713 O   0  0  0  0  0  0  0  0  0  0  0  0
   -0.3907   -4.3405    0.5712 N   0  0  0  0  0  0  0  0  0  0  0  0
    5.0050    3.2361   -2.1843 N   0  0  0  0  0  0  0  0  0  0  0  0
    0.8225   -2.5503   -0.0915 C   0  0  0  0  0  0  0  0  0  0  0  0
   -0.3708   -2.6800   -0.9107 C   0  0  0  0  0  0  0  0  0  0  0  0
    0.7417   -3.6127    0.8398 C   0  0  0  0  0  0  0  0  0  0  0  0
   -1.0818   -3.8006   -0.4781 C   0  0  0  0  0  0  0  0  0  0  0  0
    1.9787   -1.7077    0.0110 C   0  0  0  0  0  0  0  0  0  0  0  0
    3.4445    1.3543   -1.5903 C   0  0  3  0  0  0  0  0  0  0  0  0
    3.3364    0.1550   -0.6330 C   0  0  0  0  0  0  0  0  0  0  0  0
    4.7742    2.0797   -1.3057 C   0  0  0  0  0  0  0  0  0  0  0  0
    1.6669   -3.8616    1.8588 C   0  0  0  0  0  0  0  0  0  0  0  0
   -0.9438   -1.9619   -1.9928 C   0  0  0  0  0  0  0  0  0  0  0  0
    2.9409   -2.0128    1.0105 C   0  0  0  0  0  0  0  0  0  0  0  0
   -2.2833   -4.2594   -1.0356 C   0  0  0  0  0  0  0  0  0  0  0  0
    2.7766   -3.0440    1.9265 C   0  0  0  0  0  0  0  0  0  0  0  0
    6.2843    3.9010   -1.8690 C   0  0  0  0  0  0  0  0  0  0  0  0
   -2.1571   -2.4003   -2.5676 C   0  0  0  0  0  0  0  0  0  0  0  0
   -2.8109   -3.5305   -2.0989 C   0  0  0  0  0  0  0  0  0  0  0  0
    7.4786    2.9939   -2.1851 C   0  0  0  0  0  0  0  0  0  0  0  0
    9.7858    2.7069   -1.9280 C   0  0  0  0  0  0  0  0  0  0  0  0
    9.9018    1.5958   -2.7920 C   0  0  0  0  0  0  0  0  0  0  0  0
   10.8066    2.9610   -0.9984 C   0  0  0  0  0  0  0  0  0  0  0  0
   11.0258    0.7717   -2.6948 C   0  0  0  0  0  0  0  0  0  0  0  0
   11.9106    2.1089   -0.9042 C   0  0  0  0  0  0  0  0  0  0  0  0
   12.0147    1.0132   -1.7505 C   0  0  0  0  0  0  0  0  0  0  0  0
    8.7138    0.0079   -4.0963 C   0  0  0  0  0  0  0  0  0  0  0  0
  1 11  1  0  0  0  0
  1 13  1  0  0  0  0
  2 12  1  0  0  0  0
  3 23  1  0  0  0  0
  3 24  1  0  0  0  0
  4 25  1  0  0  0  0
  4 30  1  0  0  0  0
  5  9  1  0  0  0  0
  5 10  1  0  0  0  0
  6 14  1  0  0  0  0
  6 20  1  0  0  0  0
  7  8  1  0  0  0  0
  7  9  2  0  0  0  0
  7 11  1  0  0  0  0
  8 10  1  0  0  0  0
  8 16  2  0  0  0  0
  9 15  1  0  0  0  0
 10 18  2  0  0  0  0
 11 17  2  0  0  0  0
 12 13  1  0  0  0  0
 12 14  1  0  0  0  0
 15 19  2  0  0  0  0
 16 21  1  0  0  0  0
 17 19  1  0  0  0  0
 18 22  1  0  0  0  0
 20 23  1  0  0  0  0
 21 22  2  0  0  0  0
 24 25  1  0  0  0  0
 24 26  2  0  0  0  0
 25 27  2  0  0  0  0
 26 28  1  0  0  0  0
 27 29  1  0  0  0  0
 28 29  2  0  0  0  0
M  END
