
 OpenBabel10141417523D

 77 80  0  0  0  0  0  0  0  0999 V2000
   -5.6680    4.6691   -6.7619 C   0  0  1  0  0  0  0  0  0  0  0  0
   -5.7793    5.4780   -8.0767 C   0  0  2  0  0  0  0  0  0  0  0  0
   -6.7843    4.8784   -8.8827 N   0  0  0  0  0  0  0  0  0  0  0  0
   -5.1423    5.5528   -5.6444 C   0  0  0  0  0  0  0  0  0  0  0  0
   -7.8092    5.4139   -9.5848 C   0  0  0  0  0  0  0  0  0  0  0  0
   -3.9914    4.8580   -4.9345 C   0  0  0  0  0  0  0  0  0  0  0  0
   -3.8879    5.4562   -3.3539 C   0  0  0  0  0  0  0  0  0  0  0  0
   -4.7400    8.4024    0.5022 O   0  0  0  0  0  0  0  0  0  0  0  0
   -4.9231    8.1392   -0.9062 C   0  0  1  0  0  0  0  0  0  0  0  0
   -4.7942    6.5965   -1.2168 C   0  0  2  0  0  0  0  0  0  0  0  0
   -6.1577    8.9335   -1.3137 C   0  0  0  0  0  0  0  0  0  0  0  0
   -8.2263    4.6900  -10.4951 O   0  0  0  0  0  0  0  0  0  0  0  0
   -4.5447    5.3624   -8.8487 N   0  0  0  0  0  0  0  0  0  0  0  0
   -6.8796    4.0078   -6.3741 O   0  0  0  0  0  0  0  0  0  0  0  0
   -4.9286    6.1501   -2.6708 N   0  0  0  0  0  0  0  0  0  0  0  0
   -2.8502    5.1993   -2.7173 O   0  0  0  0  0  0  0  0  0  0  0  0
   -5.3611    5.6140   -0.1299 C   0  0  0  0  0  0  0  0  0  0  0  0
   -4.7836    4.5546    0.1642 O   0  0  0  0  0  0  0  0  0  0  0  0
   -6.4964    5.9493    0.5775 N   0  0  0  0  0  0  0  0  0  0  0  0
   -2.7479    4.4486   -5.9401 N   0  0  0  0  0  0  0  0  0  0  0  0
   -4.4909    6.2399  -10.0235 C   0  0  0  0  0  0  0  0  0  0  0  0
   -3.2521    5.9710  -10.9077 C   0  0  0  0  0  0  0  0  0  0  0  0
   -3.2021    4.5693  -11.3404 N   0  0  0  0  0  0  0  0  0  0  0  0
   -8.3919    6.8569   -9.2895 C   0  0  2  0  0  0  0  0  0  0  0  0
   -7.9539    7.9927  -10.2504 C   0  0  2  0  0  0  0  0  0  0  0  0
   -7.9498    9.2522   -9.3703 C   0  0  0  0  0  0  0  0  0  0  0  0
   -7.6602    8.7281   -7.9541 C   0  0  0  0  0  0  0  0  0  0  0  0
   -8.2261    7.3502   -7.9245 N   0  0  0  0  0  0  0  0  0  0  0  0
   -8.9199    8.1441  -11.3064 O   0  0  0  0  0  0  0  0  0  0  0  0
   -7.7317    5.1842    0.2638 C   0  0  1  0  0  0  0  0  0  0  0  0
   -8.6159    5.4954    1.4743 C   0  0  0  0  0  0  0  0  0  0  0  0
   -7.6834    6.1474    2.5120 C   0  0  2  0  0  0  0  0  0  0  0  0
   -6.3311    5.7650    2.0100 C   0  0  0  0  0  0  0  0  0  0  0  0
   -7.9392    5.7620    3.8464 O   0  0  0  0  0  0  0  0  0  0  0  0
   -8.3065    5.5428   -1.1312 C   0  0  0  0  0  0  0  0  0  0  0  0
   -7.5941    6.1532   -1.9363 O   0  0  0  0  0  0  0  0  0  0  0  0
   -9.5547    5.0653   -1.4801 N   0  0  0  0  0  0  0  0  0  0  0  0
   -8.7537    6.7696   -6.7647 C   0  0  0  0  0  0  0  0  0  0  0  0
   -9.6785    5.3551   -6.6916 C   0  0  1  0  0  0  0  0  0  0  0  0
   -8.3879    7.2915   -5.6965 O   0  0  0  0  0  0  0  0  0  0  0  0
  -10.2517    5.2182   -5.2682 N   0  0  0  0  0  0  0  0  0  0  0  0
   -9.4251    5.1501   -4.0989 C   0  0  0  0  0  0  0  0  0  0  0  0
  -10.2542    5.5354   -2.7046 C   0  0  2  0  0  0  0  0  0  0  0  0
   -8.3091    4.8493   -4.1638 O   0  0  0  0  0  0  0  0  0  0  0  0
  -10.7146    7.0413   -2.5973 C   0  0  1  0  0  0  0  0  0  0  0  0
  -11.7909    7.4644   -1.4626 C   0  0  2  0  0  0  0  0  0  0  0  0
  -11.4433    7.4371    0.0460 C   0  0  0  0  0  0  0  0  0  0  0  0
   -9.5699    7.9046   -2.5103 O   0  0  0  0  0  0  0  0  0  0  0  0
  -12.0628    8.8742   -1.7516 O   0  0  0  0  0  0  0  0  0  0  0  0
  -10.3262    8.1886    0.4427 C   0  0  0  0  0  0  0  0  0  0  0  0
   -9.9570    8.4119    1.7795 C   0  0  0  0  0  0  0  0  0  0  0  0
  -10.6066    7.7158    2.7800 C   0  0  0  0  0  0  0  0  0  0  0  0
  -11.7218    6.9490    2.4629 C   0  0  0  0  0  0  0  0  0  0  0  0
  -12.1523    6.8174    1.1046 C   0  0  0  0  0  0  0  0  0  0  0  0
  -10.0434    7.6041    4.0206 O   0  0  0  0  0  0  0  0  0  0  0  0
  -10.7449    4.8744   -7.8010 C   0  0  1  0  0  0  0  0  0  0  0  0
  -12.1886    5.3656   -7.8386 C   0  0  0  0  0  0  0  0  0  0  0  0
  -12.9733    4.8767   -9.0912 C   0  0  0  0  0  0  0  0  0  0  0  0
  -14.3181    5.3579   -8.8374 N   0  0  0  0  0  0  0  0  0  0  0  0
  -10.2987    4.9752   -9.1299 O   0  0  0  0  0  0  0  0  0  0  0  0
    2.4617    1.6736   -2.9244 C   0  0  0  0  0  0  0  0  0  0  0  0
    3.1959    2.0561   -4.2310 C   0  0  0  0  0  0  0  0  0  0  0  0
    6.6760    2.0164    0.1993 C   0  0  0  0  0  0  0  0  0  0  0  0
    5.0694    2.1438   -0.3423 C   0  0  3  0  0  0  0  0  0  0  0  0
    4.6409    0.9752   -1.2711 C   0  0  0  0  0  0  0  0  0  0  0  0
    3.2458    0.7030   -1.9692 C   0  0  0  0  0  0  0  0  0  0  0  0
    2.5443    3.0709   -5.2874 C   0  0  0  0  0  0  0  0  0  0  0  0
    1.1658    2.6138   -5.8902 C   0  0  0  0  0  0  0  0  0  0  0  0
    8.8462    0.6034   -1.2488 C   0  0  0  0  0  0  0  0  0  0  0  0
    8.3098    1.9045   -0.4096 C   0  0  3  0  0  0  0  0  0  0  0  0
    0.3964    3.2617   -7.1801 C   0  0  0  0  0  0  0  0  0  0  0  0
   -0.4862    4.6163   -7.3579 C   0  0  0  0  0  0  0  0  0  0  0  0
   10.3950    0.5748   -1.4788 C   0  0  0  0  0  0  0  0  0  0  0  0
   -1.7912    5.2447   -6.5656 C   0  0  0  0  0  0  0  0  0  0  0  0
    4.5498    3.4963   -0.8461 C   0  0  0  0  0  0  0  0  0  0  0  0
    9.0010    3.2709   -0.8581 C   0  0  0  0  0  0  0  0  0  0  0  0
   -1.9585    6.4672   -6.6130 O   0  0  0  0  0  0  0  0  0  0  0  0
  1  2  1  0  0  0  0
  1  4  1  0  0  0  0
  1 14  1  1  0  0  0
  2  3  1  0  0  0  0
  2 13  1  6  0  0  0
  3  5  1  0  0  0  0
  5 12  2  0  0  0  0
  6  4  1  0  0  0  0
  6  7  1  0  0  0  0
  6 20  1  0  0  0  0
  7 15  1  0  0  0  0
  7 16  2  0  0  0  0
  9  8  1  1  0  0  0
  9 11  1  0  0  0  0
  9 10  1  0  0  0  0
 10 15  1  6  0  0  0
 10 17  1  0  0  0  0
 13 21  1  0  0  0  0
 17 19  1  0  0  0  0
 17 18  2  0  0  0  0
 19 33  1  0  0  0  0
 20 74  1  0  0  0  0
 21 22  1  0  0  0  0
 22 23  1  0  0  0  0
 24 28  1  1  0  0  0
 24 25  1  0  0  0  0
 24  5  1  0  0  0  0
 25 26  1  0  0  0  0
 25 29  1  6  0  0  0
 26 27  1  0  0  0  0
 27 28  1  0  0  0  0
 28 38  1  0  0  0  0
 30 19  1  1  0  0  0
 30 31  1  0  0  0  0
 30 35  1  0  0  0  0
 32 31  1  0  0  0  0
 32 33  1  0  0  0  0
 32 34  1  1  0  0  0
 35 37  1  0  0  0  0
 35 36  2  0  0  0  0
 38 40  2  0  0  0  0
 39 41  1  1  0  0  0
 39 38  1  0  0  0  0
 39 56  1  0  0  0  0
 41 42  1  0  0  0  0
 42 44  2  0  0  0  0
 43 37  1  1  0  0  0
 43 42  1  0  0  0  0
 43 45  1  0  0  0  0
 45 48  1  1  0  0  0
 45 46  1  0  0  0  0
 46 49  1  1  0  0  0
 46 47  1  0  0  0  0
 47 50  2  0  0  0  0
 47 54  1  0  0  0  0
 50 51  1  0  0  0  0
 51 52  2  0  0  0  0
 52 53  1  0  0  0  0
 52 55  1  0  0  0  0
 53 54  2  0  0  0  0
 56 60  1  6  0  0  0
 56 57  1  0  0  0  0
 57 58  1  0  0  0  0
 58 59  1  0  0  0  0
 61 62  1  0  0  0  0
 61 66  1  0  0  0  0
 63 64  1  0  0  0  0
 64 65  1  0  0  0  0
 64 75  1  0  0  0  0
 65 66  1  0  0  0  0
 67 62  1  0  0  0  0
 67 68  1  0  0  0  0
 69 70  1  0  0  0  0
 70 63  1  0  0  0  0
 70 76  1  0  0  0  0
 71 68  1  0  0  0  0
 71 72  1  0  0  0  0
 73 69  1  0  0  0  0
 74 72  1  0  0  0  0
 74 77  2  0  0  0  0
M  END
