
 OpenBabel10141417533D

 30 32  0  0  1  0  0  0  0  0999 V2000
   -1.0988   -1.4271    2.6660 S   0  0  0  0  0  0  0  0  0  0  0  0
   -1.5780   -0.6693    4.2643 C   0  0  0  0  0  0  0  0  0  0  0  0
   -1.0816    0.7397    4.5755 C   0  0  0  0  0  0  0  0  0  0  0  0
    0.0722    1.2238    4.0463 C   0  0  0  0  0  0  0  0  0  0  0  0
   -0.0290   -0.1191    2.0479 C   0  0  1  0  0  0  0  0  0  0  0  0
    0.7350    0.4195    3.1533 N   0  0  0  0  0  0  0  0  0  0  0  0
    1.9371    0.3548    2.5386 C   0  0  0  0  0  0  0  0  0  0  0  0
    1.3273   -0.4974    1.3793 C   0  0  1  0  0  0  0  0  0  0  0  0
    3.0544    0.7506    2.8299 O   0  0  0  0  0  0  0  0  0  0  0  0
    0.6232    2.5767    4.3954 C   0  0  0  0  0  0  0  0  0  0  0  0
    1.7509    2.8596    3.7274 O   0  0  0  0  0  0  0  0  0  0  0  0
    0.1276    3.4138    5.1298 O   0  0  0  0  0  0  0  0  0  0  0  0
   -1.9031    1.4555    5.5604 C   0  0  0  0  0  0  0  0  0  0  0  0
   -2.2459    0.9732    6.7650 C   0  0  0  0  0  0  0  0  0  0  0  0
    1.7891   -1.9156    1.2948 N   0  0  0  0  0  0  0  0  0  0  0  0
    2.9590   -2.2469    0.6146 C   0  0  0  0  0  0  0  0  0  0  0  0
    3.4125   -3.7338    0.6833 C   0  0  0  0  0  0  0  0  0  0  0  0
    3.5741   -1.4269   -0.0535 O   0  0  0  0  0  0  0  0  0  0  0  0
    4.1079   -4.3278   -0.4811 C   0  0  0  0  0  0  0  0  0  0  0  0
    3.1585   -4.5245    1.7012 N   0  0  0  0  0  0  0  0  0  0  0  0
    2.4537   -3.8780    2.7384 O   0  0  0  0  0  0  0  0  0  0  0  0
    2.2685   -4.7628    3.8381 C   0  0  0  0  0  0  0  0  0  0  0  0
    1.3886   -4.1428    4.9114 C   0  0  0  0  0  0  0  0  0  0  0  0
    1.2093   -4.9747    5.9627 O   0  0  0  0  0  0  0  0  0  0  0  0
    0.8638   -3.0416    4.9088 O   0  0  0  0  0  0  0  0  0  0  0  0
    4.0878   -5.6678   -0.8392 C   0  0  0  0  0  0  0  0  0  0  0  0
    4.8673   -5.9008   -2.3560 S   0  0  0  0  0  0  0  0  0  0  0  0
    5.2135   -4.2250   -2.4260 C   0  0  0  0  0  0  0  0  0  0  0  0
    4.8155   -3.5377   -1.3872 N   0  0  0  0  0  0  0  0  0  0  0  0
    5.8269   -3.6648   -3.4775 N   0  0  0  0  0  0  0  0  0  0  0  0
  1  2  1  0  0  0  0
  2  3  1  0  0  0  0
  3  4  2  0  0  0  0
  3 13  1  0  0  0  0
  4 10  1  0  0  0  0
  5  6  1  1  0  0  0
  5  1  1  0  0  0  0
  6  7  1  0  0  0  0
  6  4  1  0  0  0  0
  7  8  1  0  0  0  0
  7  9  2  0  0  0  0
  8  5  1  0  0  0  0
  8 15  1  1  0  0  0
 10 11  1  0  0  0  0
 10 12  2  0  0  0  0
 13 14  2  0  0  0  0
 15 16  1  0  0  0  0
 16 17  1  0  0  0  0
 16 18  2  0  0  0  0
 17 19  1  0  0  0  0
 17 20  2  0  0  0  0
 19 26  2  0  0  0  0
 20 21  1  0  0  0  0
 21 22  1  0  0  0  0
 22 23  1  0  0  0  0
 23 24  1  0  0  0  0
 23 25  2  0  0  0  0
 26 27  1  0  0  0  0
 27 28  1  0  0  0  0
 28 29  2  0  0  0  0
 28 30  1  0  0  0  0
 29 19  1  0  0  0  0
M  END
