
 OpenBabel10141417483D

 33 36  0  0  0  0  0  0  0  0999 V2000
   -1.3365   -1.6343    0.2625 S   0  0  0  0  0  0  0  0  0  0  0  0
   -0.0909   -0.6310   -0.5840 C   0  0  1  0  0  0  0  0  0  0  0  0
   -0.2045    0.7252   -0.0738 N   0  0  0  0  0  0  0  0  0  0  0  0
   -1.3644    1.4511    0.0064 C   0  0  0  0  0  0  0  0  0  0  0  0
   -2.5567    0.8427   -0.2432 C   0  0  0  0  0  0  0  0  0  0  0  0
   -2.7150   -0.6633   -0.4279 C   0  0  0  0  0  0  0  0  0  0  0  0
    1.3649   -0.6316   -0.0232 C   0  0  1  0  0  0  0  0  0  0  0  0
    0.9608    0.7163    0.6001 C   0  0  0  0  0  0  0  0  0  0  0  0
   -1.2906    2.9401    0.2962 C   0  0  0  0  0  0  0  0  0  0  0  0
   -2.1776    3.7296    0.0069 O   0  0  0  0  0  0  0  0  0  0  0  0
   -0.1589    3.3975    0.8610 O   0  0  0  0  0  0  0  0  0  0  0  0
    1.7744   -1.6647    0.9524 N   0  0  0  0  0  0  0  0  0  0  0  0
    3.0777   -2.1266    1.0192 C   0  0  0  0  0  0  0  0  0  0  0  0
    3.3307   -3.2650    2.0287 C   0  0  0  0  0  0  0  0  0  0  0  0
    3.9608   -1.7179    0.2764 O   0  0  0  0  0  0  0  0  0  0  0  0
    4.4460   -3.4351    2.6845 N   0  0  0  0  0  0  0  0  0  0  0  0
    5.3772   -2.4275    2.4109 O   0  0  0  0  0  0  0  0  0  0  0  0
    6.6528   -2.8170    2.9057 C   0  0  0  0  0  0  0  0  0  0  0  0
    0.9327   -3.8973    2.2211 N   0  0  0  0  0  0  0  0  0  0  0  0
    0.1771   -4.9174    2.5429 C   0  0  0  0  0  0  0  0  0  0  0  0
    1.0129   -6.3671    2.9139 S   0  0  0  0  0  0  0  0  0  0  0  0
    2.5033   -5.5672    2.6504 C   0  0  0  0  0  0  0  0  0  0  0  0
    2.2809   -4.2500    2.2904 C   0  0  0  0  0  0  0  0  0  0  0  0
   -1.1597   -4.8419    2.6038 N   0  0  0  0  0  0  0  0  0  0  0  0
    1.3862    1.4904    1.4378 O   0  0  0  0  0  0  0  0  0  0  0  0
   -3.8991    1.5617   -0.3031 C   0  0  0  0  0  0  0  0  0  0  0  0
   -4.2460    2.0390   -2.0288 S   0  0  0  0  0  0  0  0  0  0  0  0
   -6.4156    3.5229   -2.7938 N   0  0  0  0  0  0  0  0  0  0  0  0
   -5.7247    2.8992   -1.7979 C   0  0  0  0  0  0  0  0  0  0  0  0
   -6.4007    3.0236   -0.6791 N   0  0  0  0  0  0  0  0  0  0  0  0
   -7.5325    3.7333   -1.0013 N   0  0  0  0  0  0  0  0  0  0  0  0
   -7.5592    4.0274   -2.2950 N   0  0  0  0  0  0  0  0  0  0  0  0
   -6.1178    3.6462   -4.1922 C   0  0  0  0  0  0  0  0  0  0  0  0
  1  6  1  0  0  0  0
  2  1  1  1  0  0  0
  2  3  1  0  0  0  0
  2  7  1  0  0  0  0
  3  4  1  0  0  0  0
  4  5  2  0  0  0  0
  4  9  1  0  0  0  0
  5  6  1  0  0  0  0
  5 26  1  0  0  0  0
  7  8  1  0  0  0  0
  7 12  1  1  0  0  0
  8  3  1  0  0  0  0
  8 25  2  0  0  0  0
  9 10  2  0  0  0  0
  9 11  1  0  0  0  0
 12 13  1  0  0  0  0
 13 14  1  0  0  0  0
 13 15  2  0  0  0  0
 14 23  1  0  0  0  0
 14 16  2  0  0  0  0
 16 17  1  0  0  0  0
 17 18  1  0  0  0  0
 19 20  2  0  0  0  0
 19 23  1  0  0  0  0
 20 21  1  0  0  0  0
 20 24  1  0  0  0  0
 21 22  1  0  0  0  0
 22 23  2  0  0  0  0
 26 27  1  0  0  0  0
 27 29  1  0  0  0  0
 28 29  1  0  0  0  0
 28 32  1  0  0  0  0
 28 33  1  0  0  0  0
 29 30  2  0  0  0  0
 30 31  1  0  0  0  0
 31 32  2  0  0  0  0
M  END
