229
 OpenBabel10141417483D

 34 37  0  0  1  0  0  0  0  0999 V2000
   -0.3934   -2.9384    2.9504 S   0  0  0  0  0  0  0  0  0  0  0  0
   -2.3110   -7.4640    2.0739 S   0  0  0  0  0  0  0  0  0  0  0  0
   -0.3223    5.6919    2.0774 S   0  0  0  0  0  0  0  0  0  0  0  0
   -3.2807   -1.7962   -0.2357 O   0  0  0  0  0  0  0  0  0  0  0  0
   -3.0907   -4.0739   -1.4949 O   0  0  0  0  0  0  0  0  0  0  0  0
   -2.6338   -6.1621   -0.8895 O   0  0  0  0  0  0  0  0  0  0  0  0
   -1.3046    1.6497    0.6042 O   0  0  0  0  0  0  0  0  0  0  0  0
   -1.5315   -3.0571    0.6010 N   0  0  0  0  0  0  0  0  0  0  0  0
   -1.4269   -0.1316    1.9986 N   0  0  0  0  0  0  0  0  0  0  0  0
   -2.3740   -9.9532    0.8803 N   0  0  0  0  0  0  0  0  0  0  0  0
   -4.4728  -10.4499   -2.2935 N   0  0  0  0  0  0  0  0  0  0  0  0
   -2.2392    4.5159    3.3221 N   0  0  0  0  0  0  0  0  0  0  0  0
   -1.3719   -9.8864    2.8171 N   0  0  0  0  0  0  0  0  0  0  0  0
   -2.0419  -11.2282    1.1743 N   0  0  0  0  0  0  0  0  0  0  0  0
   -1.4364  -11.1762    2.3522 N   0  0  0  0  0  0  0  0  0  0  0  0
   -2.2702    6.8456    3.4822 N   0  0  0  0  0  0  0  0  0  0  0  0
   -0.4001   -2.4108    1.2312 C   0  0  1  0  0  0  0  0  0  0  0  0
   -1.0759   -1.0613    0.8933 C   0  0  1  0  0  0  0  0  0  0  0  0
   -2.2294   -1.9313    0.3136 C   0  0  0  0  0  0  0  0  0  0  0  0
   -1.6427   -4.4046    0.4515 C   0  0  0  0  0  0  0  0  0  0  0  0
   -0.9630   -5.2048    1.3215 C   0  0  0  0  0  0  0  0  0  0  0  0
   -0.1859   -4.6959    2.5381 C   0  0  0  0  0  0  0  0  0  0  0  0
   -0.8794   -6.7254    1.2399 C   0  0  0  0  0  0  0  0  0  0  0  0
   -2.5096   -4.9662   -0.6665 C   0  0  0  0  0  0  0  0  0  0  0  0
   -1.5184    1.2194    1.7362 C   0  0  0  0  0  0  0  0  0  0  0  0
   -1.8826    2.0914    2.9252 C   0  0  0  0  0  0  0  0  0  0  0  0
   -1.4751    3.5187    2.7306 C   0  0  0  0  0  0  0  0  0  0  0  0
   -1.9694   -9.1467    1.9110 C   0  0  0  0  0  0  0  0  0  0  0  0
   -2.9726   -9.6216   -0.3978 C   0  0  0  0  0  0  0  0  0  0  0  0
   -3.8701  -10.7390   -0.9722 C   0  0  0  0  0  0  0  0  0  0  0  0
   -0.3802    3.9875    2.0254 C   0  0  0  0  0  0  0  0  0  0  0  0
   -1.7330    5.6943    3.0515 C   0  0  0  0  0  0  0  0  0  0  0  0
   -5.3030  -11.5787   -2.7330 C   0  0  0  0  0  0  0  0  0  0  0  0
   -5.2845   -9.2314   -2.2900 C   0  0  0  0  0  0  0  0  0  0  0  0
  1 22  1  0  0  0  0
  2 23  1  0  0  0  0
  2 28  1  0  0  0  0
  3 31  1  0  0  0  0
  3 32  1  0  0  0  0
  4 19  2  0  0  0  0
  5 24  1  0  0  0  0
  6 24  2  0  0  0  0
  7 25  2  0  0  0  0
  8 17  1  0  0  0  0
  8 19  1  0  0  0  0
  8 20  1  0  0  0  0
  9 25  1  0  0  0  0
 10 14  1  0  0  0  0
 10 28  1  0  0  0  0
 10 29  1  0  0  0  0
 11 30  1  0  0  0  0
 11 33  1  0  0  0  0
 11 34  1  0  0  0  0
 12 27  1  0  0  0  0
 12 32  2  0  0  0  0
 13 15  1  0  0  0  0
 13 28  2  0  0  0  0
 14 15  2  0  0  0  0
 16 32  1  0  0  0  0
 17  1  1  1  0  0  0
 17 18  1  0  0  0  0
 18 19  1  0  0  0  0
 18  9  1  1  0  0  0
 20 21  2  0  0  0  0
 20 24  1  0  0  0  0
 21 22  1  0  0  0  0
 21 23  1  0  0  0  0
 25 26  1  0  0  0  0
 26 27  1  0  0  0  0
 27 31  2  0  0  0  0
 29 30  1  0  0  0  0
M  END
