
 OpenBabel10141417493D

 36 39  0  0  1  0  0  0  0  0999 V2000
    0.6637   -0.4941   -0.0404 C   0  0  2  0  0  0  0  0  0  0  0  0
    0.4421    0.8899    0.3517 N   0  0  0  0  0  0  0  0  0  0  0  0
   -0.8029    1.4982    0.3546 C   0  0  0  0  0  0  0  0  0  0  0  0
   -1.9203    0.7787    0.0642 C   0  0  0  0  0  0  0  0  0  0  0  0
   -1.9262   -0.7461   -0.0354 C   0  0  0  0  0  0  0  0  0  0  0  0
   -0.5442   -1.5339    0.8314 S   0  0  0  0  0  0  0  0  0  0  0  0
    2.0664   -0.3601    0.6042 C   0  0  1  0  0  0  0  0  0  0  0  0
    1.4766    0.9407    1.2242 C   0  0  0  0  0  0  0  0  0  0  0  0
    2.4683   -1.4611    1.5322 N   0  0  0  0  0  0  0  0  0  0  0  0
    3.6047   -2.2161    1.3066 C   0  0  0  0  0  0  0  0  0  0  0  0
    4.3183   -2.0507    0.3255 O   0  0  0  0  0  0  0  0  0  0  0  0
    1.7256    1.6596    2.1804 O   0  0  0  0  0  0  0  0  0  0  0  0
    3.9224   -3.2840    2.3753 C   0  0  0  0  0  0  0  0  0  0  0  0
   -3.3385    1.3249   -0.0006 C   0  0  0  0  0  0  0  0  0  0  0  0
    3.6319   -3.0352    3.7921 C   0  0  0  0  0  0  0  0  0  0  0  0
    3.8894   -3.9310    4.8167 C   0  0  0  0  0  0  0  0  0  0  0  0
    3.4207   -3.2692    6.3223 S   0  0  0  0  0  0  0  0  0  0  0  0
    2.8922   -1.8483    5.5224 C   0  0  0  0  0  0  0  0  0  0  0  0
    3.0232   -1.8544    4.2184 N   0  0  0  0  0  0  0  0  0  0  0  0
    4.4391   -4.4517    2.0982 N   0  0  0  0  0  0  0  0  0  0  0  0
   -0.7899    2.9854    0.6124 C   0  0  0  0  0  0  0  0  0  0  0  0
   -1.9740    3.4910    0.9979 O   0  0  0  0  0  0  0  0  0  0  0  0
    0.1601    3.7356    0.4707 O   0  0  0  0  0  0  0  0  0  0  0  0
   -3.8536    1.8887   -1.6514 S   0  0  0  0  0  0  0  0  0  0  0  0
   -5.5104    2.4077   -1.2203 C   0  0  0  0  0  0  0  0  0  0  0  0
    2.3594   -0.8259    6.2034 N   0  0  0  0  0  0  0  0  0  0  0  0
   -6.2025    1.4887   -0.6288 N   0  0  0  0  0  0  0  0  0  0  0  0
   -7.5009    1.8067   -0.2893 C   0  0  0  0  0  0  0  0  0  0  0  0
   -8.0678    3.2245   -0.4959 C   0  0  0  0  0  0  0  0  0  0  0  0
   -7.1577    4.1245   -0.9883 N   0  0  0  0  0  0  0  0  0  0  0  0
   -5.9395    3.6946   -1.5550 N   0  0  0  0  0  0  0  0  0  0  0  0
   -8.2559    0.9763    0.2060 O   0  0  0  0  0  0  0  0  0  0  0  0
   -9.2183    3.5430   -0.2389 O   0  0  0  0  0  0  0  0  0  0  0  0
   -5.0818    4.8145   -1.9298 C   0  0  0  0  0  0  0  0  0  0  0  0
    4.6769   -4.6197    0.7295 O   0  0  0  0  0  0  0  0  0  0  0  0
    5.2655   -5.8962    0.5199 C   0  0  0  0  0  0  0  0  0  0  0  0
  1  2  1  1  0  0  0
  1  6  1  0  0  0  0
  1  7  1  0  0  0  0
  2  3  1  0  0  0  0
  2  8  1  0  0  0  0
  3  4  2  0  0  0  0
  3 21  1  0  0  0  0
  4  5  1  0  0  0  0
  4 14  1  0  0  0  0
  5  6  1  0  0  0  0
  7  8  1  0  0  0  0
  7  9  1  1  0  0  0
  8 12  2  0  0  0  0
  9 10  1  0  0  0  0
 10 11  2  0  0  0  0
 10 13  1  0  0  0  0
 13 15  1  0  0  0  0
 13 20  2  0  0  0  0
 14 24  1  0  0  0  0
 15 16  2  0  0  0  0
 15 19  1  0  0  0  0
 16 17  1  0  0  0  0
 17 18  1  0  0  0  0
 18 19  2  0  0  0  0
 18 26  1  0  0  0  0
 20 35  1  0  0  0  0
 21 22  1  0  0  0  0
 21 23  2  0  0  0  0
 24 25  1  0  0  0  0
 25 27  2  0  0  0  0
 25 31  1  0  0  0  0
 27 28  1  0  0  0  0
 28 29  1  0  0  0  0
 28 32  2  0  0  0  0
 29 30  1  0  0  0  0
 29 33  2  0  0  0  0
 30 31  1  0  0  0  0
 31 34  1  0  0  0  0
 35 36  1  0  0  0  0
M  END
