438
 OpenBabel10141417503D

 37 40  0  0  1  0  0  0  0  0999 V2000
   -2.4626   -5.1519   -0.9840 S   0  0  0  0  0  0  0  0  0  0  0  0
    2.4708  -10.4889   -3.0237 S   0  0  0  0  0  0  0  0  0  0  0  0
    0.1362   -5.6729    1.5127 O   0  0  0  0  0  0  0  0  0  0  0  0
   -0.9174   -1.0347    1.0301 O   0  5  0  0  0  0  0  0  0  0  0  0
   -2.3228   -1.4179    2.7730 O   0  0  0  0  0  0  0  0  0  0  0  0
   -0.0679   -4.7786   -3.0210 O   0  0  0  0  0  0  0  0  0  0  0  0
    1.0944   -5.8159   -6.2154 O   0  0  0  0  0  0  0  0  0  0  0  0
    3.7656   -3.9938   -6.1769 O   0  0  0  0  0  0  0  0  0  0  0  0
    2.5336   -3.2154   -7.8670 O   0  0  0  0  0  0  0  0  0  0  0  0
   -0.7461   -3.6551    0.5548 N   0  0  0  0  0  0  0  0  0  0  0  0
    0.9922   -5.7779   -1.4933 N   0  0  0  0  0  0  0  0  0  0  0  0
   -2.7649   -4.1344    4.2656 N   0  3  0  0  0  0  0  0  0  0  0  0
    1.5989   -6.7458   -5.2545 N   0  0  0  0  0  0  0  0  0  0  0  0
    1.9492   -8.1789   -2.0400 N   0  0  0  0  0  0  0  0  0  0  0  0
    2.6192   -9.6758   -0.4607 N   0  0  0  0  0  0  0  0  0  0  0  0
   -1.0149   -3.9759   -0.8491 C   0  0  1  0  0  0  0  0  0  0  0  0
    0.5028   -4.5650   -0.7423 C   0  0  1  0  0  0  0  0  0  0  0  0
    0.0223   -4.7390    0.6433 C   0  0  0  0  0  0  0  0  0  0  0  0
   -1.7785   -3.2557    1.3418 C   0  0  0  0  0  0  0  0  0  0  0  0
   -2.6796   -4.1876    1.7111 C   0  0  0  0  0  0  0  0  0  0  0  0
   -2.9179   -5.3751    0.7802 C   0  0  0  0  0  0  0  0  0  0  0  0
   -3.5437   -4.1145    2.9630 C   0  0  0  0  0  0  0  0  0  0  0  0
   -1.6475   -1.7461    1.7694 C   0  0  0  0  0  0  0  0  0  0  0  0
    0.6843   -5.7340   -2.8280 C   0  0  0  0  0  0  0  0  0  0  0  0
    1.3574   -6.7897   -3.9497 C   0  0  0  0  0  0  0  0  0  0  0  0
   -2.4417   -5.2935    4.8876 C   0  0  0  0  0  0  0  0  0  0  0  0
   -2.4364   -2.9701    4.8713 C   0  0  0  0  0  0  0  0  0  0  0  0
    1.7854   -8.0708   -3.3993 C   0  0  0  0  0  0  0  0  0  0  0  0
   -1.6691   -5.2788    6.0589 C   0  0  0  0  0  0  0  0  0  0  0  0
   -1.5944   -2.9035    5.9671 C   0  0  0  0  0  0  0  0  0  0  0  0
   -1.2023   -4.0752    6.5761 C   0  0  0  0  0  0  0  0  0  0  0  0
    1.4213   -4.4278   -6.0918 C   0  0  0  0  0  0  0  0  0  0  0  0
    1.9926   -9.2486   -4.1086 C   0  0  0  0  0  0  0  0  0  0  0  0
    0.1383   -3.5984   -6.3861 C   0  0  0  0  0  0  0  0  0  0  0  0
    1.5959   -4.1145   -4.6712 C   0  0  0  0  0  0  0  0  0  0  0  0
    2.5951   -3.8697   -6.8395 C   0  0  0  0  0  0  0  0  0  0  0  0
    2.3157   -9.3854   -1.7304 C   0  0  0  0  0  0  0  0  0  0  0  0
  1 21  1  0  0  0  0
  2 33  1  0  0  0  0
  2 37  1  0  0  0  0
  3 18  2  0  0  0  0
  4 23  1  0  0  0  0
  5 23  2  0  0  0  0
  6 24  2  0  0  0  0
  7 13  1  0  0  0  0
  7 32  1  0  0  0  0
  8 36  1  0  0  0  0
  9 36  2  0  0  0  0
 10 16  1  0  0  0  0
 10 18  1  0  0  0  0
 10 19  1  0  0  0  0
 11 24  1  0  0  0  0
 12 22  1  0  0  0  0
 12 26  2  0  0  0  0
 12 27  1  0  0  0  0
 13 25  2  0  0  0  0
 14 28  1  0  0  0  0
 14 37  2  0  0  0  0
 15 37  1  0  0  0  0
 16  1  1  1  0  0  0
 16 17  1  0  0  0  0
 17 18  1  0  0  0  0
 17 11  1  6  0  0  0
 19 20  2  0  0  0  0
 19 23  1  0  0  0  0
 20 21  1  0  0  0  0
 20 22  1  0  0  0  0
 24 25  1  0  0  0  0
 25 28  1  0  0  0  0
 26 29  1  0  0  0  0
 27 30  2  0  0  0  0
 28 33  2  0  0  0  0
 29 31  2  0  0  0  0
 30 31  1  0  0  0  0
 32 34  1  0  0  0  0
 32 35  1  0  0  0  0
 32 36  1  0  0  0  0
M  CHG  2   4  -1  12   1
M  END
