
 OpenBabel10141417533D

 94 98  0  0  1  0  0  0  0  0999 V2000
  -13.1739    1.6158  -16.2776 C   0  0  1  0  0  0  0  0  0  0  0  0
   -0.6213    8.9271   -5.3018 C   0  0  0  0  0  0  0  0  0  0  0  0
   -1.9452    7.8211   -5.6808 C   0  0  2  0  0  0  0  0  0  0  0  0
   -3.4318    7.9982   -6.5655 N   0  0  0  0  0  0  0  0  0  0  0  0
   -4.7372    8.5402   -6.4401 C   0  0  0  0  0  0  0  0  0  0  0  0
   -5.7303    8.4852   -7.5386 C   0  0  0  0  0  0  0  0  0  0  0  0
   -6.5321    7.1810   -7.5668 N   0  0  0  0  0  0  0  0  0  0  0  0
   -6.1405    5.9275   -7.0021 C   0  0  0  0  0  0  0  0  0  0  0  0
   -6.5340    4.3997   -7.6715 C   0  0  1  0  0  0  0  0  0  0  0  0
   -7.9608    4.0236   -7.9410 N   0  0  0  0  0  0  0  0  0  0  0  0
   -8.3935    2.7105   -8.1604 C   0  0  0  0  0  0  0  0  0  0  0  0
   -9.7044    2.6222   -8.9845 C   0  0  2  0  0  0  0  0  0  0  0  0
  -10.9406    3.4930   -8.5084 C   0  0  0  0  0  0  0  0  0  0  0  0
  -12.1665    3.8546   -9.3882 C   0  0  0  0  0  0  0  0  0  0  0  0
  -12.0240    4.6562  -10.5233 C   0  0  0  0  0  0  0  0  0  0  0  0
  -13.1446    5.1681  -11.2270 C   0  0  0  0  0  0  0  0  0  0  0  0
  -14.4591    4.8059  -10.9293 C   0  0  0  0  0  0  0  0  0  0  0  0
  -14.6250    3.9851   -9.8059 C   0  0  0  0  0  0  0  0  0  0  0  0
  -13.5011    3.5599   -9.0243 C   0  0  0  0  0  0  0  0  0  0  0  0
  -15.5824    5.2289  -11.6438 O   0  0  0  0  0  0  0  0  0  0  0  0
   -9.9951    1.1917   -9.1740 N   0  0  0  0  0  0  0  0  0  0  0  0
   -9.4615    0.4176  -10.2099 C   0  0  0  0  0  0  0  0  0  0  0  0
  -10.3556   -0.9946  -10.8400 C   0  0  1  0  0  0  0  0  0  0  0  0
  -11.0190   -1.2970  -12.2195 N   0  0  0  0  0  0  0  0  0  0  0  0
  -10.7931   -1.0743  -13.5469 C   0  0  0  0  0  0  0  0  0  0  0  0
  -10.2575    0.2740  -14.0959 C   0  0  1  0  0  0  0  0  0  0  0  0
  -11.1625    1.2241  -14.7669 N   0  0  0  0  0  0  0  0  0  0  0  0
  -12.2162    0.7561  -15.4899 C   0  0  0  0  0  0  0  0  0  0  0  0
  -12.5558   -0.4292  -15.4580 O   0  0  0  0  0  0  0  0  0  0  0  0
   -9.6324    0.9792  -12.9392 C   0  0  0  0  0  0  0  0  0  0  0  0
  -10.7142    1.7247  -12.0079 C   0  0  0  0  0  0  0  0  0  0  0  0
  -11.9248    1.1108  -11.0480 C   0  0  0  0  0  0  0  0  0  0  0  0
  -13.1724    1.4478  -11.3219 N   0  0  0  0  0  0  0  0  0  0  0  0
  -11.9697    0.5403   -9.9466 O   0  0  0  0  0  0  0  0  0  0  0  0
  -11.1482   -1.9795  -14.3094 O   0  0  0  0  0  0  0  0  0  0  0  0
   -9.4428   -2.0529  -10.3375 C   0  0  0  0  0  0  0  0  0  0  0  0
   -8.9553   -1.6811   -8.9397 C   0  0  0  0  0  0  0  0  0  0  0  0
   -7.7788   -1.7937   -8.6307 O   0  0  0  0  0  0  0  0  0  0  0  0
   -9.8688   -1.2018   -8.0520 O   0  0  0  0  0  0  0  0  0  0  0  0
   -8.3936    0.7828  -10.7087 O   0  0  0  0  0  0  0  0  0  0  0  0
   -7.7244    1.7112   -7.9059 O   0  0  0  0  0  0  0  0  0  0  0  0
   -5.5888    4.0370   -8.8991 C   0  0  1  0  0  0  0  0  0  0  0  0
   -5.5998    2.5479   -9.3256 C   0  0  0  0  0  0  0  0  0  0  0  0
   -5.9840    4.8243  -10.0287 O   0  0  0  0  0  0  0  0  0  0  0  0
   -5.3802    5.8993   -6.0230 O   0  0  0  0  0  0  0  0  0  0  0  0
   -5.3604    9.0241   -5.4890 O   0  0  0  0  0  0  0  0  0  0  0  0
   -2.0895    6.8394   -4.5448 C   0  0  0  0  0  0  0  0  0  0  0  0
   -3.1228    7.0386   -3.6707 N   0  0  0  0  0  0  0  0  0  0  0  0
   -1.2302    5.9892   -4.3034 O   0  0  0  0  0  0  0  0  0  0  0  0
   -4.1638    8.0999   -3.8132 C   0  0  1  0  0  0  0  0  0  0  0  0
   -5.0351    8.2012   -2.5305 C   0  0  0  0  0  0  0  0  0  0  0  0
   -6.5145    8.8541   -2.5435 C   0  0  0  0  0  0  0  0  0  0  0  0
   -8.2012    8.5624   -3.4570 S   0  0  0  0  0  0  0  0  0  0  0  0
   -8.0130    9.1946   -5.1391 C   0  0  0  0  0  0  0  0  0  0  0  0
   -3.5145    9.6948   -4.5033 C   0  0  0  0  0  0  0  0  0  0  0  0
   -4.1690   10.8727   -4.6186 N   0  0  0  0  0  0  0  0  0  0  0  0
   -4.2853   11.6156   -6.0783 C   0  0  1  0  0  0  0  0  0  0  0  0
   -3.2411   12.7511   -6.2099 C   0  0  0  0  0  0  0  0  0  0  0  0
   -3.3683   13.8184   -7.2878 C   0  0  0  0  0  0  0  0  0  0  0  0
   -3.6996   14.9892   -6.7063 O   0  0  0  0  0  0  0  0  0  0  0  0
   -3.0198   13.7406   -8.4535 O   0  0  0  0  0  0  0  0  0  0  0  0
   -4.6682   11.4753   -7.5969 C   0  0  0  0  0  0  0  0  0  0  0  0
   -2.6327    9.8894   -5.3488 O   0  0  0  0  0  0  0  0  0  0  0  0
   -3.8453   10.9917   -8.3844 O   0  0  0  0  0  0  0  0  0  0  0  0
   -5.8243   11.9855   -8.1745 N   0  0  0  0  0  0  0  0  0  0  0  0
   -7.0623   12.8372   -7.8356 C   0  0  1  0  0  0  0  0  0  0  0  0
   -7.8891   12.4322   -6.5052 C   0  0  0  0  0  0  0  0  0  0  0  0
   -6.8676   14.3877   -8.2636 C   0  0  0  0  0  0  0  0  0  0  0  0
   -6.2256   15.2180   -7.6258 O   0  0  0  0  0  0  0  0  0  0  0  0
   -7.2629   14.8379   -9.5048 N   0  0  0  0  0  0  0  0  0  0  0  0
   -7.3705   12.5959   -5.0714 C   0  0  0  0  0  0  0  0  0  0  0  0
   -7.9226   12.0303   -3.9024 C   0  0  0  0  0  0  0  0  0  0  0  0
   -7.1991   12.0064   -2.6820 C   0  0  0  0  0  0  0  0  0  0  0  0
   -5.8877   12.4400   -2.6314 C   0  0  0  0  0  0  0  0  0  0  0  0
   -5.4102   13.0849   -3.7434 C   0  0  0  0  0  0  0  0  0  0  0  0
   -6.1935   13.2867   -4.8837 C   0  0  0  0  0  0  0  0  0  0  0  0
  -14.4532    1.4493  -15.6289 N   0  0  0  0  0  0  0  0  0  0  0  0
  -13.0089    3.0822  -16.5197 C   0  0  0  0  0  0  0  0  0  0  0  0
  -14.8657    2.5942  -15.0329 C   0  0  0  0  0  0  0  0  0  0  0  0
  -13.9944    3.6930  -15.5671 C   0  0  0  0  0  0  0  0  0  0  0  0
  -15.7220    2.6445  -14.1709 O   0  0  0  0  0  0  0  0  0  0  0  0
   -0.3186    9.9334   -3.9889 C   0  0  0  0  0  0  0  0  0  0  0  0
    0.4136   11.1274   -4.1501 C   0  0  0  0  0  0  0  0  0  0  0  0
    0.4764   11.8375   -2.9712 N   0  0  0  0  0  0  0  0  0  0  0  0
   -0.2308   11.1862   -1.9946 C   0  0  0  0  0  0  0  0  0  0  0  0
   -0.5615   11.6159   -0.6843 C   0  0  0  0  0  0  0  0  0  0  0  0
   -1.1838   10.7089    0.1690 C   0  0  0  0  0  0  0  0  0  0  0  0
   -1.2941    9.3839   -0.2290 C   0  0  0  0  0  0  0  0  0  0  0  0
   -0.5221    9.9047   -2.5171 C   0  0  0  0  0  0  0  0  0  0  0  0
   -0.9067    8.9669   -1.5278 C   0  0  0  0  0  0  0  0  0  0  0  0
  -15.4174    5.7062  -13.2267 S   0  0  0  0  0  0  0  0  0  0  0  0
  -16.6238    4.9441  -14.0230 O   0  0  0  0  0  0  0  0  0  0  0  0
  -15.8706    7.1493  -13.3448 O   0  0  0  0  0  0  0  0  0  0  0  0
  -14.2186    5.3947  -13.7198 O   0  0  0  0  0  0  0  0  0  0  0  0
  1 28  1  1  0  0  0
  2 82  1  0  0  0  0
  3  2  1  1  0  0  0
  3 47  1  0  0  0  0
  4  3  1  0  0  0  0
  5  4  1  0  0  0  0
  6  5  1  0  0  0  0
  7  6  1  0  0  0  0
  8  7  1  0  0  0  0
  9 10  1  6  0  0  0
  9  8  1  0  0  0  0
 11 10  1  0  0  0  0
 12 21  1  1  0  0  0
 12 13  1  0  0  0  0
 12 11  1  0  0  0  0
 14 13  1  0  0  0  0
 15 14  2  0  0  0  0
 16 15  1  0  0  0  0
 17 16  2  0  0  0  0
 18 17  1  0  0  0  0
 19 14  1  0  0  0  0
 19 18  2  0  0  0  0
 20 17  1  0  0  0  0
 20 91  1  0  0  0  0
 22 21  1  0  0  0  0
 23 24  1  6  0  0  0
 23 36  1  0  0  0  0
 23 22  1  0  0  0  0
 25 24  1  0  0  0  0
 26 30  1  1  0  0  0
 26 27  1  0  0  0  0
 26 25  1  0  0  0  0
 28 27  1  0  0  0  0
 29 28  2  0  0  0  0
 31 30  1  0  0  0  0
 32 31  1  0  0  0  0
 33 32  1  0  0  0  0
 34 32  2  0  0  0  0
 35 25  2  0  0  0  0
 37 36  1  0  0  0  0
 38 37  2  0  0  0  0
 39 37  1  0  0  0  0
 40 22  2  0  0  0  0
 41 11  2  0  0  0  0
 42  9  1  0  0  0  0
 42 43  1  6  0  0  0
 42 44  1  0  0  0  0
 45  8  2  0  0  0  0
 46  5  2  0  0  0  0
 48 47  1  0  0  0  0
 49 47  2  0  0  0  0
 50 48  1  1  0  0  0
 51 50  1  0  0  0  0
 52 51  1  0  0  0  0
 53 52  1  0  0  0  0
 54 53  1  0  0  0  0
 55 50  1  0  0  0  0
 56 55  1  0  0  0  0
 57 56  1  6  0  0  0
 57 62  1  0  0  0  0
 58 57  1  0  0  0  0
 59 58  1  0  0  0  0
 60 59  1  0  0  0  0
 61 59  2  0  0  0  0
 63 55  2  0  0  0  0
 64 62  2  0  0  0  0
 65 62  1  0  0  0  0
 66 65  1  1  0  0  0
 67 66  1  0  0  0  0
 68 66  1  0  0  0  0
 69 68  2  0  0  0  0
 70 68  1  0  0  0  0
 71 67  1  0  0  0  0
 72 71  2  0  0  0  0
 73 72  1  0  0  0  0
 74 73  2  0  0  0  0
 75 74  1  0  0  0  0
 76 71  1  0  0  0  0
 76 75  2  0  0  0  0
 77  1  1  0  0  0  0
 78  1  1  0  0  0  0
 79 77  1  0  0  0  0
 79 81  2  0  0  0  0
 80 78  1  0  0  0  0
 80 79  1  0  0  0  0
 82 83  2  0  0  0  0
 84 83  1  0  0  0  0
 85 84  1  0  0  0  0
 85 86  2  0  0  0  0
 87 86  1  0  0  0  0
 88 87  2  0  0  0  0
 89 82  1  0  0  0  0
 89 85  1  0  0  0  0
 90 88  1  0  0  0  0
 90 89  2  0  0  0  0
 91 92  1  0  0  0  0
 91 93  2  0  0  0  0
 91 94  2  0  0  0  0
M  END
