341
 OpenBabel10141417483D

 27 29  0  0  1  0  0  0  0  0999 V2000
    6.6494    4.5406   -8.0685 Cl  0  0  0  0  0  0  0  0  0  0  0  0
    7.3338    1.3581    3.1340 O   0  0  0  0  0  0  0  0  0  0  0  0
    5.3894   -0.0661    0.4152 O   0  0  0  0  0  0  0  0  0  0  0  0
    4.8506    1.7731    1.5387 O   0  0  0  0  0  0  0  0  0  0  0  0
    9.1554    1.7927   -2.3407 N   0  0  0  0  0  0  0  0  0  0  0  0
    9.5777    2.7766    0.4341 N   0  0  0  0  0  0  0  0  0  0  0  0
    8.0289    2.2966   -1.5411 C   0  0  0  0  0  0  0  0  0  0  0  0
   10.1578    1.1640   -1.4664 C   0  0  0  0  0  0  0  0  0  0  0  0
    8.5480    3.3140   -0.4864 C   0  0  0  0  0  0  0  0  0  0  0  0
   10.6497    2.1807   -0.4008 C   0  0  0  0  0  0  0  0  0  0  0  0
    8.8533    1.0451   -3.5801 C   0  0  3  0  0  0  0  0  0  0  0  0
    9.0112    1.7815    1.3565 C   0  0  0  0  0  0  0  0  0  0  0  0
    8.2925    1.9352   -4.7224 C   0  0  0  0  0  0  0  0  0  0  0  0
    8.0786   -0.2603   -3.3652 C   0  0  0  0  0  0  0  0  0  0  0  0
    7.9245    2.3548    2.2912 C   0  0  0  0  0  0  0  0  0  0  0  0
    7.9905    1.3876   -5.9869 C   0  0  0  0  0  0  0  0  0  0  0  0
    8.1118    3.3223   -4.5671 C   0  0  0  0  0  0  0  0  0  0  0  0
    8.7659   -1.4788   -3.2001 C   0  0  0  0  0  0  0  0  0  0  0  0
    6.6747   -0.2872   -3.3656 C   0  0  0  0  0  0  0  0  0  0  0  0
    7.4840    2.1901   -7.0208 C   0  0  0  0  0  0  0  0  0  0  0  0
    7.5843    4.1187   -5.5836 C   0  0  0  0  0  0  0  0  0  0  0  0
    8.0695   -2.6848   -3.0768 C   0  0  0  0  0  0  0  0  0  0  0  0
    5.9806   -1.4925   -3.2399 C   0  0  0  0  0  0  0  0  0  0  0  0
    7.2756    3.5503   -6.8099 C   0  0  0  0  0  0  0  0  0  0  0  0
    6.6772   -2.6908   -3.1025 C   0  0  0  0  0  0  0  0  0  0  0  0
    6.6587    0.3376    2.4091 C   0  0  0  0  0  0  0  0  0  0  0  0
    5.5343    0.7865    1.4605 C   0  0  0  0  0  0  0  0  0  0  0  0
  1 24  1  0  0  0  0
  2 15  1  0  0  0  0
  2 26  1  0  0  0  0
  3 27  1  0  0  0  0
  4 27  2  0  0  0  0
  5  7  1  0  0  0  0
  5  8  1  0  0  0  0
  5 11  1  0  0  0  0
  6  9  1  0  0  0  0
  6 10  1  0  0  0  0
  6 12  1  0  0  0  0
  7  9  1  0  0  0  0
  8 10  1  0  0  0  0
 11 13  1  0  0  0  0
 11 14  1  0  0  0  0
 12 15  1  0  0  0  0
 13 16  2  0  0  0  0
 13 17  1  0  0  0  0
 14 18  2  0  0  0  0
 14 19  1  0  0  0  0
 16 20  1  0  0  0  0
 17 21  2  0  0  0  0
 18 22  1  0  0  0  0
 19 23  2  0  0  0  0
 20 24  2  0  0  0  0
 21 24  1  0  0  0  0
 22 25  2  0  0  0  0
 23 25  1  0  0  0  0
 26 27  1  0  0  0  0
M  END
