[NO NAME]
 OpenBabel10141417573D
Created with ChemWriter - http://chemwriter.com
102107  0  0  1  0  0  0  0  0999 V2000
   -1.2052    9.2704    3.0805 C   0  0  0  0  0  0  0  0  0  0  0  0
   -1.1302    9.7264    4.9047 C   0  0  0  0  0  0  0  0  0  0  0  0
   -1.4767   10.1294    2.1170 C   0  0  0  0  0  0  0  0  0  0  0  0
   -0.8691   10.9471    5.1384 C   0  0  0  0  0  0  0  0  0  0  0  0
   -1.6662   11.3281    2.7198 C   0  0  0  0  0  0  0  0  0  0  0  0
   -1.2984   11.6887    4.0893 C   0  0  0  0  0  0  0  0  0  0  0  0
   -1.5432    7.7290    2.5273 C   0  0  0  0  0  0  0  0  0  0  0  0
   -1.5815    6.5536    3.6700 C   0  0  0  0  0  0  0  0  0  0  0  0
   -0.9802    8.3663    6.2218 C   0  0  0  0  0  0  0  0  0  0  0  0
   -1.0200    6.6462    5.4811 C   0  0  0  0  0  0  0  0  0  0  0  0
   -0.9944    4.8707    0.7857 C   0  0  2  0  0  0  0  0  0  0  0  0
    0.2840    5.1679   -0.2190 N   0  0  0  0  0  0  0  0  0  0  0  0
   -1.4667    5.5612    2.7129 C   0  0  0  0  0  0  0  0  0  0  0  0
   -0.1031    2.5833   -0.3488 N   0  0  0  0  0  0  0  0  0  0  0  0
   -1.1359    3.0114    0.3674 C   0  0  0  0  0  0  0  0  0  0  0  0
   -0.1444    1.1625   -0.5446 C   0  0  1  0  0  0  0  0  0  0  0  0
    0.9013    0.9128   -1.6841 C   0  0  0  0  0  0  0  0  0  0  0  0
    1.8455    0.1641   -1.4712 O   0  0  0  0  0  0  0  0  0  0  0  0
   -0.3552    0.1671    0.8766 C   0  0  0  0  0  0  0  0  0  0  0  0
   -0.7065   -1.2870    0.7327 C   0  0  0  0  0  0  0  0  0  0  0  0
    1.0056    1.4615   -2.9603 N   0  0  0  0  0  0  0  0  0  0  0  0
   -2.0398   -1.7316    0.6579 C   0  0  0  0  0  0  0  0  0  0  0  0
    0.3325   -2.2103    0.8085 C   0  0  0  0  0  0  0  0  0  0  0  0
    0.0695   -3.5700    0.7616 C   0  0  0  0  0  0  0  0  0  0  0  0
   -2.3064   -3.0996    0.7153 C   0  0  0  0  0  0  0  0  0  0  0  0
   -1.2495   -4.0085    0.7841 C   0  0  0  0  0  0  0  0  0  0  0  0
    2.0380    0.7987   -4.0039 C   0  0  2  0  0  0  0  0  0  0  0  0
    3.2068   -0.1860   -3.4235 C   0  0  0  0  0  0  0  0  0  0  0  0
    2.3806    1.7996   -5.2242 C   0  0  0  0  0  0  0  0  0  0  0  0
    2.9671    3.0052   -5.0009 N   0  0  0  0  0  0  0  0  0  0  0  0
    4.2310   -1.0697   -4.0546 C   0  0  0  0  0  0  0  0  0  0  0  0
    5.4161   -1.1945   -3.2915 C   0  0  0  0  0  0  0  0  0  0  0  0
    3.9415   -2.0873   -4.9332 C   0  0  0  0  0  0  0  0  0  0  0  0
    4.8049   -3.0620   -5.1391 N   0  0  0  0  0  0  0  0  0  0  0  0
    5.9187   -2.4416   -3.0488 C   0  0  0  0  0  0  0  0  0  0  0  0
    5.7357   -3.2119   -4.1770 C   0  0  0  0  0  0  0  0  0  0  0  0
    3.1335    3.7059   -3.7181 C   0  0  2  0  0  0  0  0  0  0  0  0
    3.6482    3.1830   -2.2553 C   0  0  0  0  0  0  0  0  0  0  0  0
    4.6298    3.7380   -1.7808 O   0  0  0  0  0  0  0  0  0  0  0  0
    3.0551    2.3021   -1.4174 N   0  0  0  0  0  0  0  0  0  0  0  0
    3.4961    1.7965    0.0090 C   0  0  1  0  0  0  0  0  0  0  0  0
    5.0388    1.8923    0.2559 C   0  0  0  0  0  0  0  0  0  0  0  0
    2.7321    2.3095    1.2769 C   0  0  0  0  0  0  0  0  0  0  0  0
    3.3512    3.0510    2.2906 N   0  0  0  0  0  0  0  0  0  0  0  0
    5.7837    3.3028    0.4291 C   0  0  0  0  0  0  0  0  0  0  0  0
   -1.7630    2.1555    1.0263 O   0  0  0  0  0  0  0  0  0  0  0  0
   -1.5659   -5.6830    1.0063 Cl  0  0  0  0  0  0  0  0  0  0  0  0
    2.2552    1.5152   -6.4198 O   0  0  0  0  0  0  0  0  0  0  0  0
    2.0110    4.7218   -3.5079 C   0  0  0  0  0  0  0  0  0  0  0  0
    2.5283    5.8519   -2.8639 O   0  0  0  0  0  0  0  0  0  0  0  0
    1.5113    2.3389    1.1456 O   0  0  0  0  0  0  0  0  0  0  0  0
    5.6347    5.5432    1.5027 C   0  0  0  0  0  0  0  0  0  0  0  0
    6.9025    5.8661    1.1271 C   0  0  0  0  0  0  0  0  0  0  0  0
    5.1050    4.3721    0.9913 C   0  0  0  0  0  0  0  0  0  0  0  0
    7.5935    5.0274    0.2814 C   0  0  0  0  0  0  0  0  0  0  0  0
    7.0680    3.7219    0.0123 C   0  0  0  0  0  0  0  0  0  0  0  0
    7.5172    6.9345    1.6855 O   0  0  0  0  0  0  0  0  0  0  0  0
    3.2914    3.7902    3.8528 C   0  0  1  0  0  0  0  0  0  0  0  0
    2.3966    4.6866    4.8467 C   0  0  0  0  0  0  0  0  0  0  0  0
    1.1947    4.6544    4.5982 O   0  0  0  0  0  0  0  0  0  0  0  0
    2.1991    5.6846    5.7772 N   0  0  0  0  0  0  0  0  0  0  0  0
    1.2418    7.2187    5.8049 C   0  0  1  0  0  0  0  0  0  0  0  0
    2.1640    8.2229    6.4749 C   0  0  0  0  0  0  0  0  0  0  0  0
    0.0800    8.2613    4.6235 C   0  0  0  0  0  0  0  0  0  0  0  0
   -1.8992    8.0830    4.6333 N   0  0  0  0  0  0  0  0  0  0  0  0
   -3.1484    8.5499    4.0331 C   0  0  2  0  0  0  0  0  0  0  0  0
   -4.0816    7.9226    3.0770 C   0  0  0  0  0  0  0  0  0  0  0  0
   -4.6810    8.9011    2.5323 O   0  0  0  0  0  0  0  0  0  0  0  0
   -4.1381    6.6991    2.4461 N   0  0  0  0  0  0  0  0  0  0  0  0
   -3.0860    4.3255    0.2705 O   0  0  0  0  0  0  0  0  0  0  0  0
   -2.9967    4.3615    1.5143 C   0  0  0  0  0  0  0  0  0  0  0  0
    3.2020    8.9309    5.6129 C   0  0  0  0  0  0  0  0  0  0  0  0
    3.0603    2.6479    4.7227 C   0  0  0  0  0  0  0  0  0  0  0  0
    1.9165    1.7457    4.2697 C   0  0  0  0  0  0  0  0  0  0  0  0
    0.9043    2.7130    4.1867 C   0  0  0  0  0  0  0  0  0  0  0  0
    1.3014    3.8430    2.6650 N   0  0  0  0  0  0  0  0  0  0  0  0
    1.6111    5.1098    2.1977 C   0  0  0  0  0  0  0  0  0  0  0  0
    0.4594    5.6801    1.5166 O   0  0  0  0  0  0  0  0  0  0  0  0
    2.2666    6.1188    3.5462 N   0  0  0  0  0  0  0  0  0  0  0  0
    0.7181    9.2397    4.1076 O   0  0  0  0  0  0  0  0  0  0  0  0
   -3.7615    9.5798    4.8840 C   0  0  0  0  0  0  0  0  0  0  0  0
   -4.8532    8.8781    5.7132 C   0  0  0  0  0  0  0  0  0  0  0  0
   -5.8450    9.6736    6.5194 C   0  0  0  0  0  0  0  0  0  0  0  0
   -6.8200   10.3267    5.6389 N   0  0  0  0  0  0  0  0  0  0  0  0
   -6.4271   11.1681    4.6651 C   0  0  0  0  0  0  0  0  0  0  0  0
   -5.2405   11.3939    4.3269 N   0  0  0  0  0  0  0  0  0  0  0  0
   -7.2757   12.0833    4.2289 N   0  0  0  0  0  0  0  0  0  0  0  0
   -3.8716    5.2171    2.4253 C   0  0  2  0  0  0  0  0  0  0  0  0
   -4.8144    6.9517    1.2476 C   0  0  0  0  0  0  0  0  0  0  0  0
   -5.1183    4.6904    1.9002 C   0  0  0  0  0  0  0  0  0  0  0  0
   -5.5070    5.6957    0.8572 C   0  0  0  0  0  0  0  0  0  0  0  0
   -1.8891    3.6578    2.3926 N   0  0  0  0  0  0  0  0  0  0  0  0
   -0.5289    4.2431    3.2752 C   0  0  1  0  0  0  0  0  0  0  0  0
    0.2483    5.9305    3.2134 C   0  0  0  0  0  0  0  0  0  0  0  0
   -1.2399    3.8819    4.8228 C   0  0  0  0  0  0  0  0  0  0  0  0
    0.3215    7.3894    3.1554 O   0  0  0  0  0  0  0  0  0  0  0  0
    1.6112    7.0451    2.0354 N   0  0  0  0  0  0  0  0  0  0  0  0
    2.8602    9.6583    4.2994 C   0  0  0  0  0  0  0  0  0  0  0  0
    3.7424   10.0497    6.4886 C   0  0  0  0  0  0  0  0  0  0  0  0
    0.4517    6.6119   -0.4815 C   0  0  0  0  0  0  0  0  0  0  0  0
   -0.3319    7.5143   -0.2009 O   0  0  0  0  0  0  0  0  0  0  0  0
    1.8717    6.8921   -0.7852 C   0  0  0  0  0  0  0  0  0  0  0  0
  2  1  1  0  0  0  0
  3  1  2  0  0  0  0
  4  2  2  0  0  0  0
  5  3  1  0  0  0  0
  6  4  1  0  0  0  0
  6  5  2  0  0  0  0
  7  1  1  0  0  0  0
  8  7  2  0  0  0  0
  9  2  1  0  0  0  0
 10  8  1  0  0  0  0
 10  9  2  0  0  0  0
 11 12  1  1  0  0  0
 11 15  1  0  0  0  0
 11 13  1  0  0  0  0
 13  8  1  0  0  0  0
 15 14  1  0  0  0  0
 16 17  1  1  0  0  0
 16 19  1  0  0  0  0
 16 14  1  0  0  0  0
 18 17  2  0  0  0  0
 20 19  1  0  0  0  0
 21 17  1  0  0  0  0
 22 20  1  0  0  0  0
 23 20  2  0  0  0  0
 24 23  1  0  0  0  0
 25 22  2  0  0  0  0
 26 24  2  0  0  0  0
 26 25  1  0  0  0  0
 27 21  1  1  0  0  0
 27 28  1  0  0  0  0
 29 27  1  0  0  0  0
 30 29  1  0  0  0  0
 31 28  1  0  0  0  0
 32 31  1  0  0  0  0
 33 31  2  0  0  0  0
 34 33  1  0  0  0  0
 35 32  2  0  0  0  0
 36 34  2  0  0  0  0
 36 35  1  0  0  0  0
 37 49  1  1  0  0  0
 37 38  1  0  0  0  0
 37 30  1  0  0  0  0
 39 38  2  0  0  0  0
 40 38  1  0  0  0  0
 41 42  1  1  0  0  0
 41 43  1  0  0  0  0
 41 40  1  0  0  0  0
 44 43  1  0  0  0  0
 45 42  1  0  0  0  0
 46 15  2  0  0  0  0
 47 26  1  0  0  0  0
 48 29  2  0  0  0  0
 50 49  1  0  0  0  0
 51 43  2  0  0  0  0
 53 52  1  0  0  0  0
 54 45  1  0  0  0  0
 54 52  2  0  0  0  0
 55 53  2  0  0  0  0
 56 45  2  0  0  0  0
 56 55  1  0  0  0  0
 57 53  1  0  0  0  0
 58 44  1  6  0  0  0
 58 73  1  0  0  0  0
 59 58  1  0  0  0  0
 60 59  2  0  0  0  0
 61 59  1  0  0  0  0
 62 63  1  6  0  0  0
 62 64  1  0  0  0  0
 62 61  1  0  0  0  0
 65 64  1  0  0  0  0
 66 81  1  6  0  0  0
 66 67  1  0  0  0  0
 66 65  1  0  0  0  0
 68 67  2  0  0  0  0
 69 67  1  0  0  0  0
 71 70  2  0  0  0  0
 72 63  1  0  0  0  0
 72 99  1  0  0  0  0
 74 73  1  0  0  0  0
 75 74  1  0  0  0  0
 76 75  1  0  0  0  0
 77 76  1  0  0  0  0
 78 77  2  0  0  0  0
 79 77  1  0  0  0  0
 80 64  2  0  0  0  0
 82 81  1  0  0  0  0
 83 82  1  0  0  0  0
 84 83  1  0  0  0  0
 85 84  1  0  0  0  0
 86 85  2  0  0  0  0
 87 85  1  0  0  0  0
 88 69  1  0  0  0  0
 88 71  1  6  0  0  0
 89 69  1  0  0  0  0
 90 88  1  0  0  0  0
 91 89  1  0  0  0  0
 91 90  1  0  0  0  0
 92 71  1  0  0  0  0
 93 92  1  6  0  0  0
 93 95  1  0  0  0  0
 94 93  1  0  0  0  0
 96 94  2  0  0  0  0
 97 94  1  0  0  0  0
 98 72  1  0  0  0  0
100 12  1  0  0  0  0
101100  2  0  0  0  0
102100  1  0  0  0  0
M  END
