
 OpenBabel10141417503D

 13 15  0  0  0  0  0  0  0  0999 V2000
    0.9782   -1.3574    0.1216 C   0  0  3  0  0  0  0  0  0  0  0  0
    2.3397   -1.4688    1.3302 C   0  0  0  0  0  0  0  0  0  0  0  0
    2.1992    0.0014    2.4945 C   0  0  0  0  0  0  0  0  0  0  0  0
    1.3404    1.1719    1.8434 N   0  0  3  0  0  0  0  0  0  0  0  0
   -0.1687    1.1407    1.3327 C   0  0  0  0  0  0  0  0  0  0  0  0
    0.5191   -0.9822    1.3756 C   0  0  0  0  0  0  0  0  0  0  0  0
    1.5661    0.4783    0.6677 C   0  0  0  0  0  0  0  0  0  0  0  0
   -0.6834    0.4085   -1.4563 C   0  0  0  0  0  0  0  0  0  0  0  0
   -0.4489   -0.1162   -0.0248 C   0  0  1  0  0  0  0  0  0  0  0  0
   -1.7380   -0.7616    0.3002 O   0  0  0  0  0  0  0  0  0  0  0  0
   -2.7936    0.1541    0.0693 C   0  0  3  0  0  0  0  0  0  0  0  0
   -2.4509    0.8725   -1.5423 S   0  0  0  0  0  0  0  0  0  0  0  0
   -4.0790   -0.6316    0.2285 C   0  0  0  0  0  0  0  0  0  0  0  0
  1  2  1  0  0  0  0
  1  9  1  0  0  0  0
  1  6  1  0  0  0  0
  2  3  1  0  0  0  0
  3  4  1  0  0  0  0
  4  5  1  0  0  0  0
  4  7  1  0  0  0  0
  6  7  1  0  0  0  0
  8  9  1  0  0  0  0
  8 12  1  0  0  0  0
  9  5  1  1  0  0  0
  9 10  1  0  0  0  0
 10 11  1  0  0  0  0
 11 12  1  0  0  0  0
 11 13  1  0  0  0  0
M  END
