[NO NAME]
 OpenBabel10141417493D
Created with ChemWriter - http://chemwriter.com
 34 35  0  0  0  0  0  0  0  0999 V2000
    5.8204   -4.8311    2.7505 C   0  0  0  0  0  0  0  0  0  0  0  0
    5.8191   -5.8009    3.9465 N   0  0  0  0  0  0  0  0  0  0  0  0
    6.6714   -5.4864    4.9954 C   0  0  0  0  0  0  0  0  0  0  0  0
    6.6427   -5.8745    6.1852 N   0  0  0  0  0  0  0  0  0  0  0  0
    7.6559   -4.8246    4.4116 N   0  0  0  0  0  0  0  0  0  0  0  0
    8.9509   -4.6992    4.4348 C   0  0  0  0  0  0  0  0  0  0  0  0
    9.3384   -3.8216    3.5438 N   0  0  0  0  0  0  0  0  0  0  0  0
    9.7835   -5.5242    5.1066 N   0  0  0  0  0  0  0  0  0  0  0  0
    9.5656   -6.6308    5.9614 C   0  0  0  0  0  0  0  0  0  0  0  0
   10.3277   -6.7416    7.1301 C   0  0  0  0  0  0  0  0  0  0  0  0
    8.5602   -7.5979    5.7970 C   0  0  0  0  0  0  0  0  0  0  0  0
    8.1853   -8.4875    6.8233 C   0  0  0  0  0  0  0  0  0  0  0  0
   10.0225   -7.6914    8.1270 C   0  0  0  0  0  0  0  0  0  0  0  0
    8.9185   -8.5265    7.9935 C   0  0  0  0  0  0  0  0  0  0  0  0
    8.4747   -9.6339    9.2340 Cl  0  0  0  0  0  0  0  0  0  0  0  0
    5.4042   -2.9478    2.9119 C   0  0  0  0  0  0  0  0  0  0  0  0
    3.7488   -2.0910    3.1168 C   0  0  0  0  0  0  0  0  0  0  0  0
    3.1108   -2.1141    4.4934 C   0  0  0  0  0  0  0  0  0  0  0  0
    2.4656   -3.4636    4.9426 C   0  0  0  0  0  0  0  0  0  0  0  0
    3.3322   -4.6221    4.6780 C   0  0  0  0  0  0  0  0  0  0  0  0
    3.8115   -4.5024    3.2688 N   0  0  0  0  0  0  0  0  0  0  0  0
    3.8278   -4.1610    1.6856 C   0  0  0  0  0  0  0  0  0  0  0  0
    2.7341   -3.9941    0.9954 N   0  0  0  0  0  0  0  0  0  0  0  0
    5.0856   -3.9908    0.8581 N   0  0  0  0  0  0  0  0  0  0  0  0
    5.8690   -3.5786   -0.2028 C   0  0  0  0  0  0  0  0  0  0  0  0
    5.4793   -2.8784   -1.1018 N   0  0  0  0  0  0  0  0  0  0  0  0
    7.2761   -3.8529    0.1338 N   0  0  0  0  0  0  0  0  0  0  0  0
    8.2324   -4.0640   -0.8532 C   0  0  0  0  0  0  0  0  0  0  0  0
   10.5635   -4.1418   -1.5092 C   0  0  0  0  0  0  0  0  0  0  0  0
    9.6182   -4.0298   -0.4914 C   0  0  0  0  0  0  0  0  0  0  0  0
    7.8593   -4.3102   -2.1452 C   0  0  0  0  0  0  0  0  0  0  0  0
    8.7861   -4.3754   -3.1562 C   0  0  0  0  0  0  0  0  0  0  0  0
   10.1344   -4.2811   -2.8324 C   0  0  0  0  0  0  0  0  0  0  0  0
   11.2822   -4.3366   -4.1033 Cl  0  0  0  0  0  0  0  0  0  0  0  0
  1  2  1  0  0  0  0
  1 16  1  0  0  0  0
  2  3  1  0  0  0  0
  3  5  1  0  0  0  0
  3  4  2  0  0  0  0
  5  6  1  0  0  0  0
  6  8  1  0  0  0  0
  6  7  2  0  0  0  0
  8  9  1  0  0  0  0
  9 11  1  0  0  0  0
 10  9  2  0  0  0  0
 10 13  1  0  0  0  0
 11 12  2  0  0  0  0
 12 14  1  0  0  0  0
 14 13  2  0  0  0  0
 14 15  1  0  0  0  0
 16 17  1  0  0  0  0
 17 18  1  0  0  0  0
 18 19  1  0  0  0  0
 19 20  1  0  0  0  0
 20 21  1  0  0  0  0
 21 22  1  0  0  0  0
 22 23  2  0  0  0  0
 22 24  1  0  0  0  0
 24 25  1  0  0  0  0
 25 26  2  0  0  0  0
 25 27  1  0  0  0  0
 27 28  1  0  0  0  0
 28 31  1  0  0  0  0
 29 30  1  0  0  0  0
 29 33  2  0  0  0  0
 30 28  2  0  0  0  0
 31 32  2  0  0  0  0
 32 33  1  0  0  0  0
 33 34  1  0  0  0  0
M  END
