310
 OpenBabel10141417493D

 22 24  0  0  1  0  0  0  0  0999 V2000
    1.0673    0.6952    1.6421 Cl  0  0  0  0  0  0  0  0  0  0  0  0
    1.9092    1.9679   -1.2746 S   0  0  0  0  0  0  0  0  0  0  0  0
    6.8717    0.2105   -1.7525 O   0  0  0  0  0  0  0  0  0  0  0  0
    9.1671   -1.5441    1.5211 O   0  0  0  0  0  0  0  0  0  0  0  0
    1.2653    3.0194   -0.5254 O   0  0  0  0  0  0  0  0  0  0  0  0
    2.5398    2.2255   -2.5503 O   0  0  0  0  0  0  0  0  0  0  0  0
    7.4428   -0.9554    0.0904 N   0  0  0  0  0  0  0  0  0  0  0  0
    0.7468    0.8038   -1.6050 N   0  0  0  0  0  0  0  0  0  0  0  0
    6.7992    0.2475   -0.3470 C   0  0  3  0  0  0  0  0  0  0  0  0
    7.7048    1.3202    0.1860 C   0  0  0  0  0  0  0  0  0  0  0  0
    5.3573    0.3552    0.1269 C   0  0  0  0  0  0  0  0  0  0  0  0
    8.7141    0.7354    0.9528 C   0  0  0  0  0  0  0  0  0  0  0  0
    8.5143   -0.7167    0.9214 C   0  0  0  0  0  0  0  0  0  0  0  0
    4.3865    0.9982   -0.6651 C   0  0  0  0  0  0  0  0  0  0  0  0
    7.6778    2.6949    0.0124 C   0  0  0  0  0  0  0  0  0  0  0  0
    4.9541   -0.1402    1.3789 C   0  0  0  0  0  0  0  0  0  0  0  0
    3.0539    1.1228   -0.2309 C   0  0  0  0  0  0  0  0  0  0  0  0
    9.7021    1.4674    1.5822 C   0  0  0  0  0  0  0  0  0  0  0  0
    8.6708    3.4603    0.6355 C   0  0  0  0  0  0  0  0  0  0  0  0
    3.6284   -0.0198    1.8085 C   0  0  0  0  0  0  0  0  0  0  0  0
    2.6712    0.6118    1.0086 C   0  0  0  0  0  0  0  0  0  0  0  0
    9.6722    2.8526    1.4166 C   0  0  0  0  0  0  0  0  0  0  0  0
  1 21  1  0  0  0  0
  2  5  2  0  0  0  0
  2  6  2  0  0  0  0
  2  8  1  0  0  0  0
  2 17  1  0  0  0  0
  3  9  1  0  0  0  0
  4 13  2  0  0  0  0
  7  9  1  0  0  0  0
  7 13  1  0  0  0  0
  9 10  1  0  0  0  0
  9 11  1  0  0  0  0
 10 12  1  0  0  0  0
 10 15  2  0  0  0  0
 11 14  2  0  0  0  0
 11 16  1  0  0  0  0
 12 13  1  0  0  0  0
 12 18  2  0  0  0  0
 14 17  1  0  0  0  0
 15 19  1  0  0  0  0
 16 20  2  0  0  0  0
 17 21  2  0  0  0  0
 18 22  1  0  0  0  0
 19 22  2  0  0  0  0
 20 21  1  0  0  0  0
M  END
