880
 OpenBabel10141417493D

 17 18  0  0  0  0  0  0  0  0999 V2000
    0.9381    0.3814    0.6975 Cl  0  0  0  0  0  0  0  0  0  0  0  0
    7.0719   -0.3095   -0.4220 S   0  0  0  0  0  0  0  0  0  0  0  0
    2.1923   -2.6378    0.2772 S   0  0  0  0  0  0  0  0  0  0  0  0
    7.1523   -0.8262   -1.7742 O   0  0  0  0  0  0  0  0  0  0  0  0
    7.5986   -1.0673    0.6958 O   0  0  0  0  0  0  0  0  0  0  0  0
    3.0156   -3.7646   -0.0973 O   0  0  0  0  0  0  0  0  0  0  0  0
    1.4175   -2.6321    1.4935 O   0  0  0  0  0  0  0  0  0  0  0  0
    5.6252    2.2559    0.0507 N   0  0  0  0  0  0  0  0  0  0  0  0
    7.7216    1.1720   -0.3946 N   0  0  0  0  0  0  0  0  0  0  0  0
    1.1234   -2.4467   -1.0017 N   0  0  0  0  0  0  0  0  0  0  0  0
    5.3393   -0.1483   -0.0944 C   0  0  0  0  0  0  0  0  0  0  0  0
    4.8152    1.1234    0.1050 C   0  0  0  0  0  0  0  0  0  0  0  0
    3.1709   -1.1703    0.2020 C   0  0  0  0  0  0  0  0  0  0  0  0
    4.5431   -1.2978   -0.0464 C   0  0  0  0  0  0  0  0  0  0  0  0
    3.4417    1.2333    0.3513 C   0  0  0  0  0  0  0  0  0  0  0  0
    2.6158    0.0962    0.4023 C   0  0  0  0  0  0  0  0  0  0  0  0
    6.9673    2.1854   -0.1781 C   0  0  0  0  0  0  0  0  0  0  0  0
  1 16  1  0  0  0  0
  2  4  2  0  0  0  0
  2  5  2  0  0  0  0
  2  9  1  0  0  0  0
  2 11  1  0  0  0  0
  3  6  2  0  0  0  0
  3  7  2  0  0  0  0
  3 10  1  0  0  0  0
  3 13  1  0  0  0  0
  8 12  1  0  0  0  0
  8 17  1  0  0  0  0
  9 17  2  0  0  0  0
 11 12  1  0  0  0  0
 11 14  2  0  0  0  0
 12 15  2  0  0  0  0
 13 14  1  0  0  0  0
 13 16  2  0  0  0  0
 15 16  1  0  0  0  0
M  END
