
 OpenBabel10141417543D

 21 23  0  0  0  0  0  0  0  0999 V2000
    2.3151   -0.0073   -1.2428 C   0  0  0  0  0  0  0  0  0  0  0  0
    3.3435   -0.9511   -1.2748 C   0  0  0  0  0  0  0  0  0  0  0  0
    3.2707   -2.0875   -0.4740 C   0  0  0  0  0  0  0  0  0  0  0  0
    2.1524   -2.3000    0.3330 C   0  0  0  0  0  0  0  0  0  0  0  0
    1.1095   -1.3646    0.3607 C   0  0  0  0  0  0  0  0  0  0  0  0
    1.2126   -0.1804   -0.3920 C   0  0  0  0  0  0  0  0  0  0  0  0
    0.1236    0.8262   -0.3014 C   0  0  0  0  0  0  0  0  0  0  0  0
   -0.3340   -1.7363    1.3563 S   0  0  0  0  0  0  0  0  0  0  0  0
   -1.5982   -0.7866    0.5080 C   0  0  0  0  0  0  0  0  0  0  0  0
   -1.2952    0.3751   -0.2314 C   0  0  0  0  0  0  0  0  0  0  0  0
   -2.3320    1.0705   -0.8747 C   0  0  0  0  0  0  0  0  0  0  0  0
   -2.9286   -1.2130    0.6220 C   0  0  0  0  0  0  0  0  0  0  0  0
   -3.9542   -0.5005   -0.0020 C   0  0  0  0  0  0  0  0  0  0  0  0
   -3.6507    0.6350   -0.7487 C   0  0  0  0  0  0  0  0  0  0  0  0
   -4.9166    1.5152   -1.5131 Cl  0  0  0  0  0  0  0  0  0  0  0  0
    0.3682    2.1279   -0.0354 C   0  0  0  0  0  0  0  0  0  0  0  0
    1.6853    2.8108    0.2486 C   0  0  0  0  0  0  0  0  0  0  0  0
    2.0014    3.9222   -0.7680 C   0  0  0  0  0  0  0  0  0  0  0  0
    3.2877    4.6044   -0.5198 N   0  0  0  0  0  0  0  0  0  0  0  0
    3.5517    5.5762   -1.5847 C   0  0  0  0  0  0  0  0  0  0  0  0
    3.3164    5.2800    0.7795 C   0  0  0  0  0  0  0  0  0  0  0  0
  1  2  2  0  0  0  0
  1  6  1  0  0  0  0
  2  3  1  0  0  0  0
  3  4  2  0  0  0  0
  4  5  1  0  0  0  0
  5  8  1  0  0  0  0
  6  5  2  0  0  0  0
  7  6  1  0  0  0  0
  7 10  1  0  0  0  0
  7 16  2  3  0  0  0
  8  9  1  0  0  0  0
  9 12  2  0  0  0  0
 10  9  1  0  0  0  0
 11 10  2  0  0  0  0
 11 14  1  0  0  0  0
 12 13  1  0  0  0  0
 13 14  2  0  0  0  0
 14 15  1  0  0  0  0
 16 17  1  0  0  0  0
 17 18  1  0  0  0  0
 18 19  1  0  0  0  0
 19 20  1  0  0  0  0
 19 21  1  0  0  0  0
M  END
