2733
 OpenBabel10141417503D

 11 12  0  0  0  0  0  0  0  0999 V2000
    1.0974   -0.0556   -0.0669 Cl  0  0  0  0  0  0  0  0  0  0  0  0
    6.9383   -0.2627   -0.0304 O   0  0  0  0  0  0  0  0  0  0  0  0
    8.0947   -2.2714   -0.0203 O   0  0  0  0  0  0  0  0  0  0  0  0
    5.7917   -2.2468   -0.0390 N   0  0  0  0  0  0  0  0  0  0  0  0
    4.8607   -1.2493   -0.0459 C   0  0  0  0  0  0  0  0  0  0  0  0
    5.5675   -0.0642   -0.0407 C   0  0  0  0  0  0  0  0  0  0  0  0
    3.4873   -1.3055   -0.0552 C   0  0  0  0  0  0  0  0  0  0  0  0
    4.9260    1.1551   -0.0454 C   0  0  0  0  0  0  0  0  0  0  0  0
    2.8193   -0.0790   -0.0588 C   0  0  0  0  0  0  0  0  0  0  0  0
    7.0362   -1.6608   -0.0292 C   0  0  0  0  0  0  0  0  0  0  0  0
    3.5260    1.1418   -0.0546 C   0  0  0  0  0  0  0  0  0  0  0  0
  1  9  1  0  0  0  0
  2  6  1  0  0  0  0
  2 10  1  0  0  0  0
  3 10  2  0  0  0  0
  4  5  1  0  0  0  0
  4 10  1  0  0  0  0
  5  6  2  0  0  0  0
  5  7  1  0  0  0  0
  6  8  1  0  0  0  0
  7  9  2  0  0  0  0
  8 11  2  0  0  0  0
  9 11  1  0  0  0  0
M  END
