1114
 OpenBabel10141417523D

 19 20  0  0  1  0  0  0  0  0999 V2000
   -0.1273    0.7847   -0.8116 Cl  0  0  0  0  0  0  0  0  0  0  0  0
    8.0790   -2.4467    1.7702 N   0  0  0  0  0  0  0  0  0  0  0  0
    5.5975   -3.7734   -1.5943 N   0  0  0  0  0  0  0  0  0  0  0  0
    5.5498   -1.3577   -1.0168 C   0  0  3  0  0  0  0  0  0  0  0  0
    6.0897   -1.7238    0.3902 C   0  0  0  0  0  0  0  0  0  0  0  0
    7.5808   -2.1283    0.4104 C   0  0  0  0  0  0  0  0  0  0  0  0
    4.1140   -0.8191   -0.9355 C   0  0  0  0  0  0  0  0  0  0  0  0
    5.6579   -2.4872   -2.0402 C   0  0  0  0  0  0  0  0  0  0  0  0
    3.8207    0.4804   -1.3822 C   0  0  0  0  0  0  0  0  0  0  0  0
    3.0575   -1.6099   -0.4465 C   0  0  0  0  0  0  0  0  0  0  0  0
    5.7724   -2.1880   -3.3968 C   0  0  0  0  0  0  0  0  0  0  0  0
    7.3816   -3.6098    2.3290 C   0  0  0  0  0  0  0  0  0  0  0  0
    9.5207   -2.7204    1.7372 C   0  0  0  0  0  0  0  0  0  0  0  0
    2.5123    0.9744   -1.3424 C   0  0  0  0  0  0  0  0  0  0  0  0
    1.7489   -1.1142   -0.4032 C   0  0  0  0  0  0  0  0  0  0  0  0
    5.8297   -3.2233   -4.3238 C   0  0  0  0  0  0  0  0  0  0  0  0
    1.4823    0.1757   -0.8527 C   0  0  0  0  0  0  0  0  0  0  0  0
    5.6711   -4.7564   -2.5157 C   0  0  0  0  0  0  0  0  0  0  0  0
    5.7815   -4.5405   -3.8763 C   0  0  0  0  0  0  0  0  0  0  0  0
  1 17  1  0  0  0  0
  2  6  1  0  0  0  0
  2 12  1  0  0  0  0
  2 13  1  0  0  0  0
  3  8  1  0  0  0  0
  3 18  2  0  0  0  0
  4  5  1  0  0  0  0
  4  7  1  0  0  0  0
  4  8  1  0  0  0  0
  5  6  1  0  0  0  0
  7  9  2  0  0  0  0
  7 10  1  0  0  0  0
  8 11  2  0  0  0  0
  9 14  1  0  0  0  0
 10 15  2  0  0  0  0
 11 16  1  0  0  0  0
 14 17  2  0  0  0  0
 15 17  1  0  0  0  0
 16 19  2  0  0  0  0
 18 19  1  0  0  0  0
M  END
