1243
 OpenBabel10141417483D

 13 14  0  0  0  0  0  0  0  0999 V2000
    0.9239    0.0639    0.0814 Cl  0  0  0  0  0  0  0  0  0  0  0  0
    5.5357    2.7568    0.0227 Cl  0  0  0  0  0  0  0  0  0  0  0  0
    6.7990    0.0301    0.0596 O   0  0  0  0  0  0  0  0  0  0  0  0
    5.5300   -2.3144    0.0339 N   0  0  0  0  0  0  0  0  0  0  0  0
    3.3592   -1.2267    0.0523 C   0  0  0  0  0  0  0  0  0  0  0  0
    4.7682   -1.1988    0.0495 C   0  0  0  0  0  0  0  0  0  0  0  0
    5.4204    0.0321    0.0541 C   0  0  0  0  0  0  0  0  0  0  0  0
    2.6548    0.0045    0.0642 C   0  0  0  0  0  0  0  0  0  0  0  0
    2.7539   -2.5032    0.0351 C   0  0  0  0  0  0  0  0  0  0  0  0
    4.7203    1.2378    0.0482 C   0  0  0  0  0  0  0  0  0  0  0  0
    3.3317    1.2254    0.0561 C   0  0  0  0  0  0  0  0  0  0  0  0
    3.5323   -3.6556    0.0064 C   0  0  0  0  0  0  0  0  0  0  0  0
    4.9034   -3.5105    0.0074 C   0  0  0  0  0  0  0  0  0  0  0  0
  1  8  1  0  0  0  0
  2 10  1  0  0  0  0
  3  7  1  0  0  0  0
  4  6  1  0  0  0  0
  4 13  2  0  0  0  0
  5  6  2  0  0  0  0
  5  8  1  0  0  0  0
  5  9  1  0  0  0  0
  6  7  1  0  0  0  0
  7 10  2  0  0  0  0
  8 11  2  0  0  0  0
  9 12  2  0  0  0  0
 10 11  1  0  0  0  0
 12 13  1  0  0  0  0
M  END
