25295
 OpenBabel10141417493D

 20 21  0  0  1  0  0  0  0  0999 V2000
    4.9413    1.8611    4.6983 Cl  0  0  0  0  0  0  0  0  0  0  0  0
    7.6518   -1.4555   -0.5514 N   0  0  0  0  0  0  0  0  0  0  0  0
    5.8434   -4.7587    0.2337 N   0  0  0  0  0  0  0  0  0  0  0  0
    9.6201   -0.3333   -1.2151 N   0  0  0  0  0  0  0  0  0  0  0  0
    6.8018   -2.6348   -0.7831 C   0  0  0  0  0  0  0  0  0  0  0  0
    6.6888   -3.5603    0.4574 C   0  0  0  0  0  0  0  0  0  0  0  0
    6.9914   -0.1409   -0.6253 C   0  0  0  0  0  0  0  0  0  0  0  0
    9.0060   -1.4936   -0.8880 C   0  0  0  0  0  0  0  0  0  0  0  0
    6.4514    0.3056    0.7232 C   0  0  0  0  0  0  0  0  0  0  0  0
    5.8833   -5.6367    1.4088 C   0  0  0  0  0  0  0  0  0  0  0  0
    4.4528   -4.3946   -0.0480 C   0  0  0  0  0  0  0  0  0  0  0  0
    7.0729   -0.0676    1.9251 C   0  0  0  0  0  0  0  0  0  0  0  0
    5.3703    1.2018    0.7777 C   0  0  0  0  0  0  0  0  0  0  0  0
    9.7545   -2.6667   -0.8408 C   0  0  0  0  0  0  0  0  0  0  0  0
    6.6002    0.4012    3.1524 C   0  0  0  0  0  0  0  0  0  0  0  0
    4.9023    1.6808    2.0051 C   0  0  0  0  0  0  0  0  0  0  0  0
   11.1265   -2.6518   -1.1096 C   0  0  0  0  0  0  0  0  0  0  0  0
    5.5160    1.2728    3.1870 C   0  0  0  0  0  0  0  0  0  0  0  0
   10.9434   -0.3330   -1.4935 C   0  0  0  0  0  0  0  0  0  0  0  0
   11.7355   -1.4547   -1.4467 C   0  0  0  0  0  0  0  0  0  0  0  0
  1 18  1  0  0  0  0
  2  5  1  0  0  0  0
  2  7  1  0  0  0  0
  2  8  1  0  0  0  0
  3  6  1  0  0  0  0
  3 10  1  0  0  0  0
  3 11  1  0  0  0  0
  4  8  1  0  0  0  0
  4 19  2  0  0  0  0
  5  6  1  0  0  0  0
  7  9  1  0  0  0  0
  8 14  2  0  0  0  0
  9 12  2  0  0  0  0
  9 13  1  0  0  0  0
 12 15  1  0  0  0  0
 13 16  2  0  0  0  0
 14 17  1  0  0  0  0
 15 18  2  0  0  0  0
 16 18  1  0  0  0  0
 17 20  2  0  0  0  0
 19 20  1  0  0  0  0
M  END
