
 OpenBabel10141417493D

 28 30  0  0  1  0  0  0  0  0999 V2000
    4.2314   -0.4145    3.2775 C   0  0  0  0  0  0  0  0  0  0  0  0
    4.1237   -2.7778    5.0767 C   0  0  0  0  0  0  0  0  0  0  0  0
    3.2135   -4.0408    2.9349 C   0  0  0  0  0  0  0  0  0  0  0  0
    3.2673   -3.6525    1.4600 C   0  0  0  0  0  0  0  0  0  0  0  0
    4.4072   -0.2648    4.8031 C   0  0  0  0  0  0  0  0  0  0  0  0
    3.6993   -3.7232    5.9305 C   0  0  0  0  0  0  0  0  0  0  0  0
    4.9240   -1.5474    5.4689 C   0  0  0  0  0  0  0  0  0  0  0  0
    3.9299   -3.7223    7.3611 C   0  0  0  0  0  0  0  0  0  0  0  0
    4.3368   -4.7838    8.0764 C   0  0  0  0  0  0  0  0  0  0  0  0
    4.6597   -6.0966    7.5234 C   0  0  0  0  0  0  0  0  0  0  0  0
    4.4983   -4.7391    9.5837 C   0  0  0  0  0  0  0  0  0  0  0  0
    3.8420   -7.2189    8.1075 C   0  0  0  0  0  0  0  0  0  0  0  0
    5.6521   -6.2856    6.6445 C   0  0  0  0  0  0  0  0  0  0  0  0
    3.7275   -5.8782   10.2740 C   0  0  2  0  0  0  0  0  0  0  0  0
    3.9828   -7.2486    9.6319 C   0  0  0  0  0  0  0  0  0  0  0  0
    2.3252   -5.5988   10.2710 O   0  0  0  0  0  0  0  0  0  0  0  0
    5.6321   -1.6587    0.4454 C   0  0  0  0  0  0  0  0  0  0  0  0
    4.1142   -1.5021    0.2662 C   0  0  2  0  0  0  0  0  0  0  0  0
    3.7813   -2.1190   -1.1301 C   0  0  0  0  0  0  0  0  0  0  0  0
    2.3093   -2.0803   -1.5528 C   0  0  0  0  0  0  0  0  0  0  0  0
    0.5000   -3.5833   -4.6815 C   0  0  0  0  0  0  0  0  0  0  0  0
    0.6245   -2.8231   -3.3569 C   0  0  0  0  0  0  0  0  0  0  0  0
   -0.3355   -3.4311   -2.3319 C   0  0  0  0  0  0  0  0  0  0  0  0
    2.0901   -2.8277   -2.8772 C   0  0  0  0  0  0  0  0  0  0  0  0
    3.2286   -2.0952    1.4048 C   0  0  2  0  0  0  0  0  0  0  0  0
    3.9858   -2.8929    3.5753 C   0  0  2  0  0  0  0  0  0  0  0  0
    3.3666   -1.6366    2.9093 C   0  0  2  0  0  0  0  0  0  0  0  0
    1.9193   -1.3415    3.4208 C   0  0  0  0  0  0  0  0  0  0  0  0
  1  5  1  0  0  0  0
  2  6  2  0  0  0  0
  2  7  1  0  0  0  0
  3  4  1  0  0  0  0
  5  7  1  0  0  0  0
  6  8  1  0  0  0  0
  8  9  2  0  0  0  0
  9 10  1  0  0  0  0
  9 11  1  0  0  0  0
 10 12  1  0  0  0  0
 10 13  2  0  0  0  0
 11 14  1  0  0  0  0
 12 15  1  0  0  0  0
 14 15  1  0  0  0  0
 14 16  1  6  0  0  0
 18 19  1  1  0  0  0
 18 17  1  0  0  0  0
 19 20  1  0  0  0  0
 20 24  1  0  0  0  0
 22 21  1  0  0  0  0
 22 23  1  0  0  0  0
 24 22  1  0  0  0  0
 25  4  1  1  0  0  0
 25 18  1  0  0  0  0
 26 27  1  0  0  0  0
 26  2  1  6  0  0  0
 26  3  1  0  0  0  0
 27 25  1  0  0  0  0
 27  1  1  0  0  0  0
 27 28  1  6  0  0  0
M  END
