1188
 OpenBabel10141417513D

 15 16  0  0  0  0  0  0  0  0999 V2000
    4.7732   -1.5530    1.4520 O   0  0  0  0  0  0  0  0  0  0  0  0
    4.8511    1.0433    2.1770 O   0  0  0  0  0  0  0  0  0  0  0  0
    3.7924   -0.6354    1.0141 N   0  0  0  0  0  0  0  0  0  0  0  0
    2.8049   -2.5956   -0.1839 C   0  0  0  0  0  0  0  0  0  0  0  0
    2.2123   -3.4552    0.9494 C   0  0  0  0  0  0  0  0  0  0  0  0
    2.0976   -2.9311   -1.5148 C   0  0  0  0  0  0  0  0  0  0  0  0
    2.2867   -4.9472    0.6267 C   0  0  0  0  0  0  0  0  0  0  0  0
    2.1971   -4.4214   -1.8394 C   0  0  0  0  0  0  0  0  0  0  0  0
    1.6295   -5.2749   -0.7099 C   0  0  0  0  0  0  0  0  0  0  0  0
    2.7858   -1.1174    0.1981 C   0  0  0  0  0  0  0  0  0  0  0  0
    1.8578   -0.2328   -0.2215 C   0  0  0  0  0  0  0  0  0  0  0  0
    1.9076    1.1662    0.1767 C   0  0  0  0  0  0  0  0  0  0  0  0
    3.9358    0.6654    1.4488 C   0  0  0  0  0  0  0  0  0  0  0  0
    2.8943    1.6085    0.9740 C   0  0  0  0  0  0  0  0  0  0  0  0
    0.8230    2.0630   -0.3393 C   0  0  0  0  0  0  0  0  0  0  0  0
  1  3  1  0  0  0  0
  2 13  2  0  0  0  0
  3 10  1  0  0  0  0
  3 13  1  0  0  0  0
  4  5  1  0  0  0  0
  4  6  1  0  0  0  0
  4 10  1  0  0  0  0
  5  7  1  0  0  0  0
  6  8  1  0  0  0  0
  7  9  1  0  0  0  0
  8  9  1  0  0  0  0
 10 11  2  0  0  0  0
 11 12  1  0  0  0  0
 12 14  2  0  0  0  0
 12 15  1  0  0  0  0
 13 14  1  0  0  0  0
M  END
