369
 OpenBabel10141419023D

 18 18  0  0  1  0  0  0  0  0999 V2000
    4.5466    3.4214    3.6310 P   0  0  0  0  0  0  0  0  0  0  0  0
    5.0749    1.6937    1.6151 O   0  0  0  0  0  0  0  0  0  0  0  0
    4.4855   -0.9616    2.8983 O   0  0  0  0  0  0  0  0  0  0  0  0
    4.9653    4.5585    2.5820 O   0  0  0  0  0  0  0  0  0  0  0  0
    2.9471    3.4420    3.4716 O   0  0  0  0  0  0  0  0  0  0  0  0
    4.9184    3.8225    5.0233 O   0  0  0  0  0  0  0  0  0  0  0  0
    9.4466   -0.2096    2.2995 O   0  0  0  0  0  0  0  0  0  0  0  0
    8.0442    0.7011    0.7257 N   0  0  0  0  0  0  0  0  0  0  0  0
   10.3647    1.2770    0.8708 N   0  0  0  0  0  0  0  0  0  0  0  0
   11.3556    2.5976   -0.6728 N   0  0  0  0  0  0  0  0  0  0  0  0
    5.4588    0.4046    1.0789 C   0  0  1  0  0  0  0  0  0  0  0  0
    6.9261   -0.0252    1.3562 C   0  0  0  0  0  0  0  0  0  0  0  0
    4.4899   -0.7370    1.4926 C   0  0  0  0  0  0  0  0  0  0  0  0
    5.1165    1.8200    3.0480 C   0  0  0  0  0  0  0  0  0  0  0  0
    7.9750    1.2590   -0.5310 C   0  0  0  0  0  0  0  0  0  0  0  0
    9.3002    0.5498    1.3568 C   0  0  0  0  0  0  0  0  0  0  0  0
    9.0453    1.8275   -1.0982 C   0  0  0  0  0  0  0  0  0  0  0  0
   10.2607    1.8842   -0.2637 C   0  0  0  0  0  0  0  0  0  0  0  0
  1  4  1  0  0  0  0
  1  5  1  0  0  0  0
  1  6  2  0  0  0  0
  1 14  1  0  0  0  0
  2 14  1  0  0  0  0
  3 13  1  0  0  0  0
  7 16  2  0  0  0  0
  8 12  1  0  0  0  0
  8 15  1  0  0  0  0
  8 16  1  0  0  0  0
  9 16  1  0  0  0  0
  9 18  2  0  0  0  0
 10 18  1  0  0  0  0
 11  2  1  1  0  0  0
 11 12  1  0  0  0  0
 11 13  1  0  0  0  0
 15 17  2  0  0  0  0
 17 18  1  0  0  0  0
M  END
