
 OpenBabel10141417483D

 24 24  0  0  1  0  0  0  0  0999 V2000
   -7.5786   -1.6580   -3.2142 C   0  0  2  0  0  0  0  0  0  0  0  0
   -8.9114   -2.1733   -3.8367 C   0  0  0  0  0  0  0  0  0  0  0  0
   -8.5113   -0.7197   -3.9652 C   0  0  0  0  0  0  0  0  0  0  0  0
   -6.2424   -1.8534   -3.8858 C   0  0  0  0  0  0  0  0  0  0  0  0
   -5.1068   -1.9822   -3.1183 N   0  0  0  0  0  0  0  0  0  0  0  0
   -3.7776   -2.0968   -3.5304 C   0  0  0  0  0  0  0  0  0  0  0  0
   -2.8071   -2.5670   -2.4666 C   0  0  0  0  0  0  0  0  0  0  0  0
   -5.4729    6.6827  -10.1541 C   0  0  0  0  0  0  0  0  0  0  0  0
   -5.5334    5.1667  -10.4147 C   0  0  1  0  0  0  0  0  0  0  0  0
   -6.2594   -1.8845   -5.1165 O   0  0  0  0  0  0  0  0  0  0  0  0
   -3.0496   -2.5975   -1.2696 O   0  0  0  0  0  0  0  0  0  0  0  0
   -5.6135    7.2248   -9.0698 O   0  0  0  0  0  0  0  0  0  0  0  0
   -3.2189   -1.8334   -4.7343 C   0  0  0  0  0  0  0  0  0  0  0  0
   -4.7680    4.8868  -11.6706 N   0  0  0  0  0  0  0  0  0  0  0  0
   -1.6380   -3.0348   -2.9554 O   0  0  0  0  0  0  0  0  0  0  0  0
   -5.2699    7.3732  -11.3093 O   0  0  0  0  0  0  0  0  0  0  0  0
   -8.8266   -3.1221   -5.0190 C   0  0  0  0  0  0  0  0  0  0  0  0
  -10.1807   -2.3660   -3.0441 C   0  0  0  0  0  0  0  0  0  0  0  0
   -5.0695    2.5628   -9.4176 S   0  0  0  0  0  0  0  0  0  0  0  0
   -5.0353    4.3898   -9.1805 C   0  0  0  0  0  0  0  0  0  0  0  0
   -3.7364   -1.4086   -6.0788 C   0  0  0  0  0  0  0  0  0  0  0  0
   -4.4555    2.0500   -7.7650 C   0  0  0  0  0  0  0  0  0  0  0  0
   -3.8305    0.1129   -6.2360 C   0  0  0  0  0  0  0  0  0  0  0  0
   -4.3758    0.5230   -7.6172 C   0  0  0  0  0  0  0  0  0  0  0  0
  1  4  1  6  0  0  0
  2  1  1  0  0  0  0
  2  3  1  0  0  0  0
  3  1  1  0  0  0  0
  5  4  1  0  0  0  0
  6  5  1  0  0  0  0
  7  6  1  0  0  0  0
  9  8  1  1  0  0  0
  9 20  1  0  0  0  0
  9 14  1  0  0  0  0
 10  4  2  0  0  0  0
 11  7  2  0  0  0  0
 12  8  2  0  0  0  0
 13  6  2  0  0  0  0
 15  7  1  0  0  0  0
 16  8  1  0  0  0  0
 17  2  1  0  0  0  0
 18  2  1  0  0  0  0
 19 22  1  0  0  0  0
 20 19  1  0  0  0  0
 21 13  1  0  0  0  0
 22 24  1  0  0  0  0
 23 21  1  0  0  0  0
 24 23  1  0  0  0  0
M  END
