1340
 OpenBabel10141417533D

 30 32  0  0  1  0  0  0  0  0999 V2000
    2.6968   -1.7028    0.0524 O   0  0  0  0  0  0  0  0  0  0  0  0
    4.1743   -0.2179    4.7403 O   0  0  0  0  0  0  0  0  0  0  0  0
    3.6509    1.5528    3.5090 O   0  0  0  0  0  0  0  0  0  0  0  0
   -0.3029    0.5905   -2.1405 O   0  0  0  0  0  0  0  0  0  0  0  0
   -0.9141   -1.1028   -0.7150 O   0  0  0  0  0  0  0  0  0  0  0  0
    5.3450    0.0968    0.9092 N   0  0  3  0  0  0  0  0  0  0  0  0
    3.9274   -0.0479    1.1120 N   0  0  0  0  0  0  0  0  0  0  0  0
    1.7013    1.3687   -0.4960 N   0  0  0  0  0  0  0  0  0  0  0  0
    3.6227   -0.6625    2.4299 C   0  0  1  0  0  0  0  0  0  0  0  0
    2.7416    0.4478   -1.0313 C   0  0  1  0  0  0  0  0  0  0  0  0
    6.0488   -1.1893    0.9016 C   0  0  0  0  0  0  0  0  0  0  0  0
    5.7794    1.0373   -0.1156 C   0  0  0  0  0  0  0  0  0  0  0  0
    4.3891   -1.9823    2.6375 C   0  0  0  0  0  0  0  0  0  0  0  0
    3.8314    1.3098   -1.6740 C   0  0  0  0  0  0  0  0  0  0  0  0
    5.8666   -1.8448    2.2725 C   0  0  0  0  0  0  0  0  0  0  0  0
    5.2540    0.7920   -1.5286 C   0  0  0  0  0  0  0  0  0  0  0  0
    3.1793   -0.5667    0.0415 C   0  0  0  0  0  0  0  0  0  0  0  0
    0.5196    0.6919    0.1045 C   0  0  1  0  0  0  0  0  0  0  0  0
    3.8400    0.3523    3.5587 C   0  0  0  0  0  0  0  0  0  0  0  0
   -0.3452    1.7507    0.8047 C   0  0  0  0  0  0  0  0  0  0  0  0
   -1.5561    1.1329    1.5126 C   0  0  0  0  0  0  0  0  0  0  0  0
   -0.3085   -0.0664   -0.9451 C   0  0  0  0  0  0  0  0  0  0  0  0
   -2.4047    2.1825    2.1814 C   0  0  0  0  0  0  0  0  0  0  0  0
   -3.4520    2.7939    1.4790 C   0  0  0  0  0  0  0  0  0  0  0  0
   -2.1461    2.5737    3.5004 C   0  0  0  0  0  0  0  0  0  0  0  0
   -0.8603   -0.1087   -3.2547 C   0  0  0  0  0  0  0  0  0  0  0  0
   -4.2376    3.7695    2.0920 C   0  0  0  0  0  0  0  0  0  0  0  0
   -2.9327    3.5505    4.1114 C   0  0  0  0  0  0  0  0  0  0  0  0
    0.2597   -0.8295   -3.9810 C   0  0  0  0  0  0  0  0  0  0  0  0
   -3.9789    4.1462    3.4084 C   0  0  0  0  0  0  0  0  0  0  0  0
  1 17  2  0  0  0  0
  2 19  1  0  0  0  0
  3 19  2  0  0  0  0
  4 22  1  0  0  0  0
  4 26  1  0  0  0  0
  5 22  2  0  0  0  0
  6  7  1  0  0  0  0
  6 11  1  0  0  0  0
  6 12  1  0  0  0  0
  7  9  1  0  0  0  0
  7 17  1  0  0  0  0
  9 13  1  0  0  0  0
  9 19  1  1  0  0  0
 10 14  1  0  0  0  0
 10 17  1  0  0  0  0
 10  8  1  1  0  0  0
 11 15  1  0  0  0  0
 12 16  1  0  0  0  0
 13 15  1  0  0  0  0
 14 16  1  0  0  0  0
 18  8  1  6  0  0  0
 18 20  1  0  0  0  0
 18 22  1  0  0  0  0
 20 21  1  0  0  0  0
 21 23  1  0  0  0  0
 23 24  2  0  0  0  0
 23 25  1  0  0  0  0
 24 27  1  0  0  0  0
 25 28  2  0  0  0  0
 26 29  1  0  0  0  0
 27 30  2  0  0  0  0
 28 30  1  0  0  0  0
M  END
