501
 OpenBabel10141417483D

 17 17  0  0  0  0  0  0  0  0999 V2000
    0.4347    0.0081    1.7643 S   0  0  0  0  0  0  0  0  0  0  0  0
    1.6191    4.3696    0.5864 N   0  0  0  0  0  0  0  0  0  0  0  0
    4.4351   -0.9220    1.2871 N   0  0  0  0  0  0  0  0  0  0  0  0
    2.5686    3.1622    2.1744 N   0  0  0  0  0  0  0  0  0  0  0  0
    6.0865   -2.2217    0.3305 N   0  0  0  0  0  0  0  0  0  0  0  0
    4.1314   -3.1913    1.2739 N   0  0  0  0  0  0  0  0  0  0  0  0
    7.8338   -0.3481    0.7834 N   0  0  0  0  0  0  0  0  0  0  0  0
    1.3078    2.6589    1.9153 C   0  0  0  0  0  0  0  0  0  0  0  0
    0.8056    1.5096    2.7247 C   0  0  0  0  0  0  0  0  0  0  0  0
    2.0641   -0.3481    1.0052 C   0  0  0  0  0  0  0  0  0  0  0  0
    3.1976   -0.6179    1.9976 C   0  0  0  0  0  0  0  0  0  0  0  0
    0.7081    3.3909    0.9011 C   0  0  0  0  0  0  0  0  0  0  0  0
   -0.5943    3.2866    0.2033 C   0  0  0  0  0  0  0  0  0  0  0  0
    2.7239    4.1788    1.3610 C   0  0  0  0  0  0  0  0  0  0  0  0
    4.8774   -2.1817    0.9796 C   0  0  0  0  0  0  0  0  0  0  0  0
    4.4972   -4.5565    0.9529 C   0  0  0  0  0  0  0  0  0  0  0  0
    7.0683   -1.1813    0.5648 C   0  0  0  0  0  0  0  0  0  0  0  0
  1  9  1  0  0  0  0
  1 10  1  0  0  0  0
  2 12  1  0  0  0  0
  2 14  1  0  0  0  0
  3 11  1  0  0  0  0
  3 15  1  0  0  0  0
  4  8  1  0  0  0  0
  4 14  2  0  0  0  0
  5 15  1  0  0  0  0
  5 17  1  0  0  0  0
  6 15  2  0  0  0  0
  6 16  1  0  0  0  0
  7 17  3  0  0  0  0
  8  9  1  0  0  0  0
  8 12  2  0  0  0  0
 10 11  1  0  0  0  0
 12 13  1  0  0  0  0
M  END
