587
 OpenBabel10141417483D

 29 31  0  0  0  0  0  0  0  0999 V2000
    3.8538    1.6818    2.2598 S   0  0  0  0  0  0  0  0  0  0  0  0
    0.8899  -10.4434    0.5278 O   0  0  0  0  0  0  0  0  0  0  0  0
    1.4506   -9.9531   -1.5431 O   0  0  0  0  0  0  0  0  0  0  0  0
    1.8739   -5.0159   -0.0758 O   0  0  0  0  0  0  0  0  0  0  0  0
    2.8783    1.4557   -0.1074 N   0  0  0  0  0  0  0  0  0  0  0  0
    3.8321   -5.8129   -1.0531 N   0  0  0  0  0  0  0  0  0  0  0  0
    1.8582    3.7291   -0.5521 C   0  0  0  0  0  0  0  0  0  0  0  0
    0.4276    3.2516   -0.9514 C   0  0  0  0  0  0  0  0  0  0  0  0
    2.1902    3.6123   -2.0701 C   0  0  0  0  0  0  0  0  0  0  0  0
    0.6942    3.8214   -2.3551 C   0  0  0  0  0  0  0  0  0  0  0  0
    2.6062    2.7357    0.3247 C   0  0  0  0  0  0  0  0  0  0  0  0
    2.0200   -8.3514    0.1854 C   0  0  0  0  0  0  0  0  0  0  0  0
    3.4982   -8.6390    0.5740 C   0  0  0  0  0  0  0  0  0  0  0  0
    1.2632   -7.9398    1.5103 C   0  0  0  0  0  0  0  0  0  0  0  0
    1.8731   -7.2483   -0.9113 C   0  0  0  0  0  0  0  0  0  0  0  0
    3.0791    3.0499    1.5787 C   0  0  0  0  0  0  0  0  0  0  0  0
    1.4245   -9.6199   -0.3780 C   0  0  0  0  0  0  0  0  0  0  0  0
    3.5641    0.7925    0.8027 C   0  0  0  0  0  0  0  0  0  0  0  0
    4.4504   -9.0639   -0.5453 C   0  0  0  0  0  0  0  0  0  0  0  0
   -0.2143   -7.5762    1.3735 C   0  0  0  0  0  0  0  0  0  0  0  0
    2.5148   -5.9018   -0.6349 C   0  0  0  0  0  0  0  0  0  0  0  0
    4.1044   -0.5140    0.6701 C   0  0  0  0  0  0  0  0  0  0  0  0
    4.6622   -4.6825   -0.9816 C   0  0  0  0  0  0  0  0  0  0  0  0
    4.4235   -0.9801   -0.5468 C   0  0  0  0  0  0  0  0  0  0  0  0
    5.0020   -2.3063   -0.7184 C   0  0  0  0  0  0  0  0  0  0  0  0
    4.1466   -3.3968   -0.8665 C   0  0  0  0  0  0  0  0  0  0  0  0
    6.0505   -4.8699   -1.0323 C   0  0  0  0  0  0  0  0  0  0  0  0
    6.3855   -2.5000   -0.7054 C   0  0  0  0  0  0  0  0  0  0  0  0
    6.9109   -3.7800   -0.8800 C   0  0  0  0  0  0  0  0  0  0  0  0
  1 16  1  0  0  0  0
  1 18  1  0  0  0  0
  2 17  1  0  0  0  0
  3 17  2  0  0  0  0
  4 21  2  0  0  0  0
  5 11  1  0  0  0  0
  5 18  2  0  0  0  0
  6 21  1  0  0  0  0
  6 23  1  0  0  0  0
  7  8  1  0  0  0  0
  7  9  1  0  0  0  0
  7 11  1  0  0  0  0
  8 10  1  0  0  0  0
  9 10  1  0  0  0  0
 11 16  2  0  0  0  0
 12 13  1  0  0  0  0
 12 14  1  0  0  0  0
 12 15  1  0  0  0  0
 12 17  1  0  0  0  0
 13 19  1  0  0  0  0
 14 20  1  0  0  0  0
 15 21  1  0  0  0  0
 18 22  1  0  0  0  0
 22 24  2  0  0  0  0
 23 26  1  0  0  0  0
 23 27  2  0  0  0  0
 24 25  1  0  0  0  0
 25 26  2  0  0  0  0
 25 28  1  0  0  0  0
 27 29  1  0  0  0  0
 28 29  2  0  0  0  0
M  END
