68867
 OpenBabel10141417513D

 29 31  0  0  1  0  0  0  0  0999 V2000
    4.3988    2.4060    1.2215 O   0  0  0  0  0  0  0  0  0  0  0  0
    6.5241    2.8188   -0.3988 O   0  0  0  0  0  0  0  0  0  0  0  0
    6.3750   -3.4210    0.4242 O   0  5  0  0  0  0  0  0  0  0  0  0
    8.1704   -3.3477   -0.8252 O   0  0  0  0  0  0  0  0  0  0  0  0
    1.5359   -1.0284    4.9248 N   0  0  0  0  0  0  0  0  0  0  0  0
    3.7973    0.2913    1.8459 N   0  0  0  0  0  0  0  0  0  0  0  0
    7.2230   -2.8032   -0.2362 N   0  3  0  0  0  0  0  0  0  0  0  0
    8.9902   -1.0420   -1.8802 N   0  0  0  0  0  0  0  0  0  0  0  0
   -0.5730   -1.6508    6.2875 C   0  0  3  0  0  0  0  0  0  0  0  0
    0.8295   -0.9770    6.2315 C   0  0  0  0  0  0  0  0  0  0  0  0
    2.6548    0.6798    2.6738 C   0  0  3  0  0  0  0  0  0  0  0  0
    2.8640   -0.3956    4.9944 C   0  0  0  0  0  0  0  0  0  0  0  0
    0.7199   -0.5695    3.7977 C   0  0  0  0  0  0  0  0  0  0  0  0
    3.0384    0.8689    4.1455 C   0  0  0  0  0  0  0  0  0  0  0  0
    1.5080   -0.3256    2.5075 C   0  0  0  0  0  0  0  0  0  0  0  0
   -1.2703   -1.4716    7.6549 C   0  0  0  0  0  0  0  0  0  0  0  0
   -0.5393   -3.1541    5.9543 C   0  0  0  0  0  0  0  0  0  0  0  0
   -0.6282   -2.2718    8.7946 C   0  0  0  0  0  0  0  0  0  0  0  0
   -0.0542   -4.0078    7.0908 C   0  0  0  0  0  0  0  0  0  0  0  0
   -0.0897   -3.6053    8.3691 C   0  0  0  0  0  0  0  0  0  0  0  0
    4.6293    1.1898    1.1814 C   0  0  0  0  0  0  0  0  0  0  0  0
    5.8123    0.6455    0.4080 C   0  0  0  0  0  0  0  0  0  0  0  0
    6.6991    1.4518   -0.3466 C   0  0  0  0  0  0  0  0  0  0  0  0
    6.0527   -0.7434    0.4306 C   0  0  0  0  0  0  0  0  0  0  0  0
    7.1045   -1.3334   -0.2959 C   0  0  0  0  0  0  0  0  0  0  0  0
    7.7400    0.8374   -1.0762 C   0  0  0  0  0  0  0  0  0  0  0  0
    7.9992   -0.5418   -1.0245 C   0  0  0  0  0  0  0  0  0  0  0  0
    7.7039    3.6044   -0.6396 C   0  0  0  0  0  0  0  0  0  0  0  0
    7.5412    4.9977   -0.0530 C   0  0  0  0  0  0  0  0  0  0  0  0
  1 21  2  0  0  0  0
  2 23  1  0  0  0  0
  2 28  1  0  0  0  0
  3  7  1  0  0  0  0
  4  7  2  0  0  0  0
  5 10  1  0  0  0  0
  5 12  1  0  0  0  0
  5 13  1  0  0  0  0
  6 11  1  0  0  0  0
  6 21  1  0  0  0  0
  7 25  1  0  0  0  0
  8 27  1  0  0  0  0
  9 10  1  0  0  0  0
  9 16  1  0  0  0  0
  9 17  1  0  0  0  0
 11 14  1  0  0  0  0
 11 15  1  0  0  0  0
 12 14  1  0  0  0  0
 13 15  1  0  0  0  0
 16 18  1  0  0  0  0
 17 19  1  0  0  0  0
 18 20  1  0  0  0  0
 19 20  2  0  0  0  0
 21 22  1  0  0  0  0
 22 23  1  0  0  0  0
 22 24  2  0  0  0  0
 23 26  2  0  0  0  0
 24 25  1  0  0  0  0
 25 27  2  0  0  0  0
 26 27  1  0  0  0  0
 28 29  1  0  0  0  0
M  CHG  2   3  -1   7   1
M  END
