827
 OpenBabel10141417473D

 19 21  0  0  0  0  0  0  0  0999 V2000
    3.2650    2.1037    0.3403 O   0  0  0  0  0  0  0  0  0  0  0  0
    2.7742   -0.2559    0.3268 O   0  0  0  0  0  0  0  0  0  0  0  0
    6.9262   -2.5392    2.3814 O   0  0  0  0  0  0  0  0  0  0  0  0
   10.5482   -0.9631    3.7377 O   0  0  0  0  0  0  0  0  0  0  0  0
    9.8820   -2.7780    2.5410 O   0  0  0  0  0  0  0  0  0  0  0  0
    7.7220    1.3771    2.2605 N   0  0  0  0  0  0  0  0  0  0  0  0
    8.7207    0.5023    2.5892 N   0  0  0  0  0  0  0  0  0  0  0  0
    6.4800    0.9581    1.7523 C   0  0  0  0  0  0  0  0  0  0  0  0
    6.1572   -0.4174    1.7195 C   0  0  0  0  0  0  0  0  0  0  0  0
    4.2941    1.3561    0.8228 C   0  0  0  0  0  0  0  0  0  0  0  0
    5.5006    1.8529    1.2838 C   0  0  0  0  0  0  0  0  0  0  0  0
    4.0132    0.0135    0.8127 C   0  0  0  0  0  0  0  0  0  0  0  0
    4.9254   -0.9089    1.2591 C   0  0  0  0  0  0  0  0  0  0  0  0
    8.1140    2.7958    2.2822 C   0  0  0  0  0  0  0  0  0  0  0  0
    7.1647   -1.3540    2.2164 C   0  0  0  0  0  0  0  0  0  0  0  0
    8.5040   -0.7859    2.5614 C   0  0  0  0  0  0  0  0  0  0  0  0
    2.3109    1.0724    0.0066 C   0  0  0  0  0  0  0  0  0  0  0  0
    8.6604    3.2410    0.9338 C   0  0  0  0  0  0  0  0  0  0  0  0
    9.7007   -1.6483    2.9401 C   0  0  0  0  0  0  0  0  0  0  0  0
  1 10  1  0  0  0  0
  1 17  1  0  0  0  0
  2 12  1  0  0  0  0
  2 17  1  0  0  0  0
  3 15  2  0  0  0  0
  4 19  1  0  0  0  0
  5 19  2  0  0  0  0
  6  7  1  0  0  0  0
  6  8  1  0  0  0  0
  6 14  1  0  0  0  0
  7 16  2  0  0  0  0
  8  9  1  0  0  0  0
  8 11  2  0  0  0  0
  9 13  2  0  0  0  0
  9 15  1  0  0  0  0
 10 11  1  0  0  0  0
 10 12  2  0  0  0  0
 12 13  1  0  0  0  0
 14 18  1  0  0  0  0
 15 16  1  0  0  0  0
 16 19  1  0  0  0  0
M  END
