537
 OpenBabel10141417523D

 24 27  0  0  0  0  0  0  0  0999 V2000
    0.8058   -0.2408   -0.3280 F   0  0  0  0  0  0  0  0  0  0  0  0
    4.2943   -3.6650    0.2928 O   0  0  0  0  0  0  0  0  0  0  0  0
    8.5160   -3.5771    0.5223 O   0  0  0  0  0  0  0  0  0  0  0  0
    6.8116   -4.8846    1.0537 O   0  0  0  0  0  0  0  0  0  0  0  0
    6.3141   -0.1350    0.5085 N   0  0  0  0  0  0  0  0  0  0  0  0
    2.1255    2.3564   -0.2048 N   0  0  0  0  0  0  0  0  0  0  0  0
    0.4007    4.6726    0.4250 N   0  0  0  0  0  0  0  0  0  0  0  0
    7.1325    1.0972    0.5178 C   0  0  0  0  0  0  0  0  0  0  0  0
    8.3762    1.2463    1.3672 C   0  0  0  0  0  0  0  0  0  0  0  0
    7.1491    2.0323    1.7027 C   0  0  0  0  0  0  0  0  0  0  0  0
    4.9101   -0.1162    0.2759 C   0  0  0  0  0  0  0  0  0  0  0  0
    6.9592   -1.3573    0.6007 C   0  0  0  0  0  0  0  0  0  0  0  0
    4.2006   -1.3252    0.2149 C   0  0  0  0  0  0  0  0  0  0  0  0
    4.1837    1.0746    0.1048 C   0  0  0  0  0  0  0  0  0  0  0  0
    2.7794    1.1056   -0.0788 C   0  0  0  0  0  0  0  0  0  0  0  0
    0.6662    2.3353   -0.4758 C   0  0  0  0  0  0  0  0  0  0  0  0
    2.5035    3.3312    0.8496 C   0  0  0  0  0  0  0  0  0  0  0  0
    6.3855   -2.5620    0.5621 C   0  0  0  0  0  0  0  0  0  0  0  0
    4.9197   -2.6178    0.3665 C   0  0  0  0  0  0  0  0  0  0  0  0
    0.1148    3.7604   -0.7002 C   0  0  0  0  0  0  0  0  0  0  0  0
    1.8605    4.7139    0.6160 C   0  0  0  0  0  0  0  0  0  0  0  0
    2.8228   -1.3429   -0.0028 C   0  0  0  0  0  0  0  0  0  0  0  0
    2.1327   -0.1452   -0.1494 C   0  0  0  0  0  0  0  0  0  0  0  0
    7.2036   -3.7772    0.7348 C   0  0  0  0  0  0  0  0  0  0  0  0
  1 23  1  0  0  0  0
  2 19  2  0  0  0  0
  3 24  1  0  0  0  0
  4 24  2  0  0  0  0
  5  8  1  0  0  0  0
  5 11  1  0  0  0  0
  5 12  1  0  0  0  0
  6 15  1  0  0  0  0
  6 16  1  0  0  0  0
  6 17  1  0  0  0  0
  7 20  1  0  0  0  0
  7 21  1  0  0  0  0
  8  9  1  0  0  0  0
  8 10  1  0  0  0  0
  9 10  1  0  0  0  0
 11 13  1  0  0  0  0
 11 14  2  0  0  0  0
 12 18  2  0  0  0  0
 13 19  1  0  0  0  0
 13 22  2  0  0  0  0
 14 15  1  0  0  0  0
 15 23  2  0  0  0  0
 16 20  1  0  0  0  0
 17 21  1  0  0  0  0
 18 19  1  0  0  0  0
 18 24  1  0  0  0  0
 22 23  1  0  0  0  0
M  END
