
 OpenBabel10141417513D

 32 34  0  0  1  0  0  0  0  0999 V2000
   -2.3598   -2.3030    2.9565 C   0  0  0  0  0  0  0  0  0  0  0  0
   -3.2408   -2.5796    1.7768 C   0  0  0  0  0  0  0  0  0  0  0  0
   -0.9710   -2.1128    2.9417 C   0  0  0  0  0  0  0  0  0  0  0  0
   -2.7248   -2.7023    0.5085 N   0  0  0  0  0  0  0  0  0  0  0  0
   -3.0393   -2.1906    4.1935 C   0  0  0  0  0  0  0  0  0  0  0  0
   -0.3138   -1.7293    4.1324 C   0  0  0  0  0  0  0  0  0  0  0  0
   -3.5827   -2.9255   -0.6781 C   0  0  1  0  0  0  0  0  0  0  0  0
   -2.3730   -1.8337    5.3625 C   0  0  0  0  0  0  0  0  0  0  0  0
   -2.8258   -2.9871   -2.0463 C   0  0  2  0  0  0  0  0  0  0  0  0
   -0.9931   -1.6103    5.3530 C   0  0  0  0  0  0  0  0  0  0  0  0
   -2.3300   -5.2939   -1.2162 N   0  0  0  0  0  0  0  0  0  0  0  0
   -2.3713   -4.4368   -2.4028 C   0  0  0  0  0  0  0  0  0  0  0  0
   -4.4637   -4.1847   -0.5607 C   0  0  0  0  0  0  0  0  0  0  0  0
   -4.4637   -2.6770    1.9846 O   0  0  0  0  0  0  0  0  0  0  0  0
   -3.6740   -5.4992   -0.6767 C   0  0  0  0  0  0  0  0  0  0  0  0
   -0.3194   -1.0740    6.4653 N   0  0  0  0  0  0  0  0  0  0  0  0
   -3.2810   -1.7056    6.8293 Cl  0  0  0  0  0  0  0  0  0  0  0  0
   -0.2948   -2.2809    1.7598 O   0  0  0  0  0  0  0  0  0  0  0  0
    3.2233  -10.6213   -4.6312 C   0  0  0  0  0  0  0  0  0  0  0  0
   -1.7068   -2.0863   -2.1159 O   0  0  0  0  0  0  0  0  0  0  0  0
    1.0664   -9.1436   -3.6474 C   0  0  0  0  0  0  0  0  0  0  0  0
    4.2384  -11.3345   -5.1371 F   0  0  0  0  0  0  0  0  0  0  0  0
    2.1569  -11.2743   -4.0200 C   0  0  0  0  0  0  0  0  0  0  0  0
    3.2422   -9.2388   -4.7344 C   0  0  0  0  0  0  0  0  0  0  0  0
    1.0734  -10.5344   -3.5205 C   0  0  0  0  0  0  0  0  0  0  0  0
    2.1605   -8.5058   -4.2463 C   0  0  0  0  0  0  0  0  0  0  0  0
   -1.5015   -6.4975   -1.3438 C   0  0  0  0  0  0  0  0  0  0  0  0
   -2.0043   -7.6103   -2.2771 C   0  0  0  0  0  0  0  0  0  0  0  0
    0.0703   -8.2842   -3.2807 O   0  0  0  0  0  0  0  0  0  0  0  0
   -0.9804   -8.7503   -2.4359 C   0  0  0  0  0  0  0  0  0  0  0  0
    1.0738   -2.6768    1.8850 C   0  0  0  0  0  0  0  0  0  0  0  0
   -2.0756   -0.7113   -2.0986 C   0  0  0  0  0  0  0  0  0  0  0  0
  2  1  1  0  0  0  0
  3  1  1  0  0  0  0
  4  2  1  0  0  0  0
  5  1  2  0  0  0  0
  6  3  2  0  0  0  0
  7  4  1  1  0  0  0
  8  5  1  0  0  0  0
  9  7  1  0  0  0  0
  9 20  1  1  0  0  0
 10  6  1  0  0  0  0
 10  8  2  0  0  0  0
 12  9  1  0  0  0  0
 12 11  1  0  0  0  0
 13  7  1  0  0  0  0
 14  2  2  0  0  0  0
 15 11  1  0  0  0  0
 15 13  1  0  0  0  0
 16 10  1  0  0  0  0
 17  8  1  0  0  0  0
 18  3  1  0  0  0  0
 22 19  1  0  0  0  0
 23 19  2  0  0  0  0
 24 19  1  0  0  0  0
 25 21  2  0  0  0  0
 25 23  1  0  0  0  0
 26 21  1  0  0  0  0
 26 24  2  0  0  0  0
 27 11  1  0  0  0  0
 28 27  1  0  0  0  0
 29 21  1  0  0  0  0
 30 28  1  0  0  0  0
 30 29  1  0  0  0  0
 31 18  1  0  0  0  0
 32 20  1  0  0  0  0
M  END
