
 OpenBabel10141417473D

  5  4  0  0  0  0  0  0  0  0999 V2000
    1.0927    0.2663    0.8519 Cl  0  0  0  0  0  0  0  0  0  0  0  0
    4.9453   -0.3971   -1.7915 Cl  0  0  0  0  0  0  0  0  0  0  0  0
    3.0300   -0.0612   -0.4548 Pt  0  0  0  0  0  0  0  0  0  0  0  0
    3.8368    1.6605    0.3165 N   0  0  0  0  0  0  0  0  0  0  0  0
    3.9018   -1.1381    1.0585 N   0  0  0  0  0  0  0  0  0  0  0  0
  3  1  1  0  0  0  0
  3  2  1  0  0  0  0
  3  4  1  0  0  0  0
  3  5  1  0  0  0  0
M  END
