26987
 OpenBabel10141417493D

 24 26  0  0  1  0  0  0  0  0999 V2000
    3.6559   -0.7048   -2.2525 Cl  0  0  0  0  0  0  0  0  0  0  0  0
    9.0758    3.1943   -2.2493 O   0  0  0  0  0  0  0  0  0  0  0  0
    7.7051    6.2217    0.5122 N   0  0  0  0  0  0  0  0  0  0  0  0
    7.3210    6.3120   -0.9117 C   0  0  2  0  0  0  0  0  0  0  0  0
    5.8535    5.8619   -0.9624 C   0  0  0  0  0  0  0  0  0  0  0  0
    5.6075    5.2029    0.3830 C   0  0  0  0  0  0  0  0  0  0  0  0
    6.4887    6.0187    1.3053 C   0  0  0  0  0  0  0  0  0  0  0  0
    8.2477    5.4334   -1.7783 C   0  0  0  0  0  0  0  0  0  0  0  0
    8.2268    3.9554   -1.3852 C   0  0  0  0  0  0  0  0  0  0  0  0
    8.4583    7.3820    0.9739 C   0  0  0  0  0  0  0  0  0  0  0  0
    9.2000    1.7827   -1.9150 C   0  0  1  0  0  0  0  0  0  0  0  0
    7.8057    1.1195   -1.9802 C   0  0  0  0  0  0  0  0  0  0  0  0
   10.1633    1.1224   -2.9355 C   0  0  0  0  0  0  0  0  0  0  0  0
    9.9053    1.6680   -0.5374 C   0  0  0  0  0  0  0  0  0  0  0  0
    7.0641    1.1709   -3.1795 C   0  0  0  0  0  0  0  0  0  0  0  0
    7.2118    0.4897   -0.8706 C   0  0  0  0  0  0  0  0  0  0  0  0
   10.4633   -0.2545   -2.8465 C   0  0  0  0  0  0  0  0  0  0  0  0
   10.7999    1.8622   -3.9487 C   0  0  0  0  0  0  0  0  0  0  0  0
    5.7864    0.6082   -3.2663 C   0  0  0  0  0  0  0  0  0  0  0  0
    5.9329   -0.0701   -0.9562 C   0  0  0  0  0  0  0  0  0  0  0  0
   11.3869   -0.8522   -3.7079 C   0  0  0  0  0  0  0  0  0  0  0  0
   11.7164    1.2616   -4.8145 C   0  0  0  0  0  0  0  0  0  0  0  0
    5.2273   -0.0115   -2.1536 C   0  0  0  0  0  0  0  0  0  0  0  0
   12.0174   -0.0924   -4.6889 C   0  0  0  0  0  0  0  0  0  0  0  0
  1 23  1  0  0  0  0
  2  9  1  0  0  0  0
  3  4  1  0  0  0  0
  3  7  1  0  0  0  0
  3 10  1  0  0  0  0
  4  5  1  0  0  0  0
  4  8  1  6  0  0  0
  5  6  1  0  0  0  0
  6  7  1  0  0  0  0
  8  9  1  0  0  0  0
 11 13  1  6  0  0  0
 11 14  1  0  0  0  0
 11 12  1  0  0  0  0
 11  2  1  0  0  0  0
 12 15  2  0  0  0  0
 12 16  1  0  0  0  0
 13 17  2  0  0  0  0
 13 18  1  0  0  0  0
 15 19  1  0  0  0  0
 16 20  2  0  0  0  0
 17 21  1  0  0  0  0
 18 22  2  0  0  0  0
 19 23  2  0  0  0  0
 20 23  1  0  0  0  0
 21 24  2  0  0  0  0
 22 24  1  0  0  0  0
M  END
