
 OpenBabel10141417533D

 30 31  0  0  0  0  0  0  0  0999 V2000
    0.5083   -2.0260    0.9743 C   0  0  0  0  0  0  0  0  0  0  0  0
    0.4515   -1.1388    2.0373 C   0  0  0  0  0  0  0  0  0  0  0  0
    0.3914    0.2289    1.7870 C   0  0  0  0  0  0  0  0  0  0  0  0
    0.3750    0.7595    0.4735 C   0  0  0  0  0  0  0  0  0  0  0  0
    0.4441   -0.1569   -0.5973 C   0  0  0  0  0  0  0  0  0  0  0  0
    0.5091   -1.5426   -0.3369 C   0  0  0  0  0  0  0  0  0  0  0  0
    0.6043   -2.7286   -1.5966 Cl  0  0  0  0  0  0  0  0  0  0  0  0
    0.4685    0.3966   -2.2388 Cl  0  0  0  0  0  0  0  0  0  0  0  0
    0.2464    2.2938    0.2942 C   0  0  3  0  0  0  0  0  0  0  0  0
    1.4597    3.0269    0.8925 C   0  0  0  0  0  0  0  0  0  0  0  0
    2.6644    3.1905    0.0553 C   0  0  0  0  0  0  0  0  0  0  0  0
    2.3727    2.9291   -1.2345 O   0  0  0  0  0  0  0  0  0  0  0  0
    3.4000    3.0177   -2.2247 C   0  0  0  0  0  0  0  0  0  0  0  0
    3.7407    3.5264    0.4669 O   0  0  0  0  0  0  0  0  0  0  0  0
    1.3583    3.5271    2.1491 C   0  0  0  0  0  0  0  0  0  0  0  0
    0.1429    3.4365    2.8320 N   0  0  0  0  0  0  0  0  0  0  0  0
   -1.0739    3.2590    2.1782 C   0  0  0  0  0  0  0  0  0  0  0  0
   -1.0738    2.7783    0.9110 C   0  0  0  0  0  0  0  0  0  0  0  0
    2.4712    4.2173    2.9005 C   0  0  0  0  0  0  0  0  0  0  0  0
   -2.3089    3.6059    2.9639 C   0  0  0  0  0  0  0  0  0  0  0  0
   -2.2628    2.8370    0.0273 C   0  0  0  0  0  0  0  0  0  0  0  0
   -2.0442    2.1053   -1.0873 O   0  0  0  0  0  0  0  0  0  0  0  0
   -2.8414    2.4248   -2.2286 C   0  0  0  0  0  0  0  0  0  0  0  0
   -2.0030    2.6768   -3.3660 O   0  0  0  0  0  0  0  0  0  0  0  0
   -2.0346    1.7408   -4.3501 C   0  0  0  0  0  0  0  0  0  0  0  0
   -1.4643    2.3396   -5.6163 C   0  0  0  0  0  0  0  0  0  0  0  0
   -0.9266    1.3140   -6.6068 C   0  0  0  0  0  0  0  0  0  0  0  0
    0.2388    0.5153   -6.0466 C   0  0  0  0  0  0  0  0  0  0  0  0
   -2.5545    0.6363   -4.2669 O   0  0  0  0  0  0  0  0  0  0  0  0
   -3.2313    3.5714    0.2143 O   0  0  0  0  0  0  0  0  0  0  0  0
  1  2  2  0  0  0  0
  1  6  1  0  0  0  0
  2  3  1  0  0  0  0
  3  4  2  0  0  0  0
  4  5  1  0  0  0  0
  4  9  1  0  0  0  0
  5  6  2  0  0  0  0
  5  8  1  0  0  0  0
  6  7  1  0  0  0  0
  9 10  1  0  0  0  0
  9 18  1  0  0  0  0
 10 11  1  0  0  0  0
 10 15  2  0  0  0  0
 11 12  1  0  0  0  0
 11 14  2  0  0  0  0
 12 13  1  0  0  0  0
 15 16  1  0  0  0  0
 15 19  1  0  0  0  0
 16 17  1  0  0  0  0
 17 18  2  0  0  0  0
 17 20  1  0  0  0  0
 18 21  1  0  0  0  0
 21 22  1  0  0  0  0
 21 30  2  0  0  0  0
 22 23  1  0  0  0  0
 23 24  1  0  0  0  0
 24 25  1  0  0  0  0
 25 26  1  0  0  0  0
 25 29  2  0  0  0  0
 26 27  1  0  0  0  0
 27 28  1  0  0  0  0
M  END
