349
 OpenBabel10141417493D

 21 23  0  0  0  0  0  0  0  0999 V2000
    1.2638   -0.2557   -0.0623 Cl  0  0  0  0  0  0  0  0  0  0  0  0
    7.6638   -3.8351   -0.9478 O   0  0  0  0  0  0  0  0  0  0  0  0
    9.2833   -0.3654   -0.9678 O   0  0  0  0  0  0  0  0  0  0  0  0
    5.8363   -2.5914   -0.1831 N   0  0  0  0  0  0  0  0  0  0  0  0
    7.2249    0.0945   -0.0378 N   0  0  0  0  0  0  0  0  0  0  0  0
    5.1474   -1.3238   -0.1319 C   0  0  0  0  0  0  0  0  0  0  0  0
    5.8023   -0.0683   -0.0304 C   0  0  0  0  0  0  0  0  0  0  0  0
    7.4490   -1.6382   -1.7634 C   0  0  0  0  0  0  0  0  0  0  0  0
    7.0020   -2.7948   -0.9303 C   0  0  0  0  0  0  0  0  0  0  0  0
    8.0779   -0.6079   -0.8844 C   0  0  0  0  0  0  0  0  0  0  0  0
    5.2770   -3.6778    0.5891 C   0  0  0  0  0  0  0  0  0  0  0  0
    3.7315   -1.3449   -0.1588 C   0  0  0  0  0  0  0  0  0  0  0  0
    5.0105    1.0924    0.1181 C   0  0  0  0  0  0  0  0  0  0  0  0
    7.8201    1.1920    0.7168 C   0  0  0  0  0  0  0  0  0  0  0  0
    2.9807   -0.1798   -0.0339 C   0  0  0  0  0  0  0  0  0  0  0  0
    3.6156    1.0403    0.1162 C   0  0  0  0  0  0  0  0  0  0  0  0
    5.3193   -5.0009    0.1244 C   0  0  0  0  0  0  0  0  0  0  0  0
    4.6898   -3.4451    1.8476 C   0  0  0  0  0  0  0  0  0  0  0  0
    4.7756   -6.0487    0.8751 C   0  0  0  0  0  0  0  0  0  0  0  0
    4.1465   -4.4921    2.5986 C   0  0  0  0  0  0  0  0  0  0  0  0
    4.1868   -5.7937    2.1099 C   0  0  0  0  0  0  0  0  0  0  0  0
  1 15  1  0  0  0  0
  2  9  2  0  0  0  0
  3 10  2  0  0  0  0
  4  6  1  0  0  0  0
  4  9  1  0  0  0  0
  4 11  1  0  0  0  0
  5  7  1  0  0  0  0
  5 10  1  0  0  0  0
  5 14  1  0  0  0  0
  6  7  2  0  0  0  0
  6 12  1  0  0  0  0
  7 13  1  0  0  0  0
  8  9  1  0  0  0  0
  8 10  1  0  0  0  0
 11 17  2  0  0  0  0
 11 18  1  0  0  0  0
 12 15  2  0  0  0  0
 13 16  2  0  0  0  0
 15 16  1  0  0  0  0
 17 19  1  0  0  0  0
 18 20  2  0  0  0  0
 19 21  2  0  0  0  0
 20 21  1  0  0  0  0
M  END
