720
 OpenBabel10141417493D

 11 10  0  0  0  0  0  0  0  0999 V2000
    1.2534    0.0256    0.0585 Cl  0  0  0  0  0  0  0  0  0  0  0  0
    3.6131    1.5598   -0.6592 Cl  0  0  0  0  0  0  0  0  0  0  0  0
    3.7540   -0.4907    1.4448 P   0  0  0  0  0  0  0  0  0  0  0  0
    3.3540   -1.2331   -1.5192 P   0  0  0  0  0  0  0  0  0  0  0  0
    5.3570   -0.4876    1.3133 O   0  0  0  0  0  0  0  0  0  0  0  0
    3.5687    0.7802    2.4200 O   0  0  0  0  0  0  0  0  0  0  0  0
    2.6317   -0.6622   -2.8423 O   0  0  0  0  0  0  0  0  0  0  0  0
    4.8883   -1.0888   -1.9811 O   0  0  0  0  0  0  0  0  0  0  0  0
    3.3043   -1.7311    2.1496 O   0  0  0  0  0  0  0  0  0  0  0  0
    3.0082   -2.6785   -1.3419 O   0  0  0  0  0  0  0  0  0  0  0  0
    3.0462   -0.0784   -0.1651 C   0  0  0  0  0  0  0  0  0  0  0  0
  1 11  1  0  0  0  0
  2 11  1  0  0  0  0
  3  5  1  0  0  0  0
  3  6  1  0  0  0  0
  3  9  2  0  0  0  0
  3 11  1  0  0  0  0
  4  7  1  0  0  0  0
  4  8  1  0  0  0  0
  4 10  2  0  0  0  0
  4 11  1  0  0  0  0
M  END
