
 OpenBabel10141417503D

 35 38  0  0  1  0  0  0  0  0999 V2000
   -4.5546   -3.7465    9.9468 C   0  0  0  0  0  0  0  0  0  0  0  0
   -4.5638   -5.1352   10.0100 C   0  0  0  0  0  0  0  0  0  0  0  0
   -5.0207   -5.8564    8.9168 C   0  0  0  0  0  0  0  0  0  0  0  0
   -5.4573   -5.1942    7.7524 C   0  0  0  0  0  0  0  0  0  0  0  0
   -5.4154   -3.7813    7.6456 C   0  0  0  0  0  0  0  0  0  0  0  0
   -4.9829   -3.0758    8.7894 C   0  0  0  0  0  0  0  0  0  0  0  0
   -5.9937   -5.9963    6.6269 C   0  0  0  0  0  0  0  0  0  0  0  0
   -5.7463   -5.4651    5.2740 C   0  0  0  0  0  0  0  0  0  0  0  0
   -5.5567   -3.9953    5.0895 C   0  0  1  0  0  0  0  0  0  0  0  0
   -5.9304   -3.1319    6.3493 C   0  0  1  0  0  0  0  0  0  0  0  0
   -5.6519   -6.3114    4.2264 C   0  0  0  0  0  0  0  0  0  0  0  0
   -5.3632   -5.8191    2.8157 C   0  0  1  0  0  0  0  0  0  0  0  0
   -6.0482   -4.4721    2.5044 C   0  0  1  0  0  0  0  0  0  0  0  0
   -6.2561   -3.5509    3.7711 C   0  0  0  0  0  0  0  0  0  0  0  0
   -3.8226   -5.7567    2.6287 C   0  0  0  0  0  0  0  0  0  0  0  0
   -3.1708   -4.4127    2.5382 C   0  0  0  0  0  0  0  0  0  0  0  0
   -3.8808   -3.4538    1.9126 C   0  0  0  0  0  0  0  0  0  0  0  0
   -5.2852   -3.7142    1.3671 C   0  0  1  0  0  0  0  0  0  0  0  0
   -4.9922   -1.3489    8.8989 Cl  0  0  0  0  0  0  0  0  0  0  0  0
   -4.9986   -7.2209    8.9716 O   0  0  0  0  0  0  0  0  0  0  0  0
   -6.6199   -7.0433    6.7778 O   0  0  0  0  0  0  0  0  0  0  0  0
   -5.8272   -7.6844    4.3560 O   0  0  0  0  0  0  0  0  0  0  0  0
   -3.1196   -6.7772    2.6059 O   0  0  0  0  0  0  0  0  0  0  0  0
   -1.8126   -4.1446    3.1239 C   0  0  0  0  0  0  0  0  0  0  0  0
   -1.1055   -5.2751    3.4694 N   0  0  0  0  0  0  0  0  0  0  0  0
    0.2074   -5.1914    4.0130 C   0  0  0  0  0  0  0  0  0  0  0  0
    0.3651   -6.3599    4.7810 O   0  0  0  0  0  0  0  0  0  0  0  0
   -1.3796   -3.0211    3.3420 O   0  0  0  0  0  0  0  0  0  0  0  0
   -3.3975   -2.1721    1.7176 O   0  0  0  0  0  0  0  0  0  0  0  0
   -7.4357   -2.8671    6.5059 C   0  0  0  0  0  0  0  0  0  0  0  0
   -5.3120   -1.8684    6.0818 O   0  0  0  0  0  0  0  0  0  0  0  0
   -5.1708   -4.3628    0.0363 N   0  0  0  0  0  0  0  0  0  0  0  0
   -4.4561   -3.5264   -0.9418 C   0  0  0  0  0  0  0  0  0  0  0  0
   -6.4513   -4.7627   -0.5535 C   0  0  0  0  0  0  0  0  0  0  0  0
   -5.9000   -6.8112    1.9313 O   0  0  0  0  0  0  0  0  0  0  0  0
  1  2  2  0  0  0  0
  1  6  1  0  0  0  0
  2  3  1  0  0  0  0
  3  4  2  0  0  0  0
  3 20  1  0  0  0  0
  4  5  1  0  0  0  0
  4  7  1  0  0  0  0
  5  6  2  0  0  0  0
  5 10  1  0  0  0  0
  6 19  1  0  0  0  0
  7  8  1  0  0  0  0
  7 21  2  0  0  0  0
  8 11  2  0  0  0  0
  9  8  1  6  0  0  0
  9 10  1  0  0  0  0
  9 14  1  0  0  0  0
 10 30  1  1  0  0  0
 10 31  1  0  0  0  0
 11 12  1  0  0  0  0
 11 22  1  0  0  0  0
 12 13  1  0  0  0  0
 12 15  1  0  0  0  0
 12 35  1  6  0  0  0
 13 14  1  1  0  0  0
 13 18  1  0  0  0  0
 15 16  1  0  0  0  0
 15 23  2  0  0  0  0
 16 17  2  0  0  0  0
 16 24  1  0  0  0  0
 17 18  1  0  0  0  0
 17 29  1  0  0  0  0
 18 32  1  6  0  0  0
 24 25  1  0  0  0  0
 24 28  2  0  0  0  0
 25 26  1  0  0  0  0
 26 27  1  0  0  0  0
 32 33  1  0  0  0  0
 32 34  1  0  0  0  0
M  END
