
 OpenBabel10141417503D

 29 31  0  0  0  0  0  0  0  0999 V2000
   -0.6494   -0.1758    1.7384 C   0  0  0  0  0  0  0  0  0  0  0  0
   -1.5078   -0.5028    0.6891 C   0  0  0  0  0  0  0  0  0  0  0  0
   -0.9915   -0.6918   -0.5926 C   0  0  0  0  0  0  0  0  0  0  0  0
    0.3804   -0.5620   -0.8237 C   0  0  0  0  0  0  0  0  0  0  0  0
    1.2502   -0.2408    0.2235 C   0  0  0  0  0  0  0  0  0  0  0  0
    0.7222   -0.0404    1.5086 C   0  0  0  0  0  0  0  0  0  0  0  0
    3.6641    2.1801    0.5763 C   0  0  0  0  0  0  0  0  0  0  0  0
    3.2138    1.2897   -0.4016 C   0  0  0  0  0  0  0  0  0  0  0  0
    2.7130   -0.0576   -0.0316 C   0  0  0  0  0  0  0  0  0  0  0  0
    4.1116    3.4523    0.2100 C   0  0  0  0  0  0  0  0  0  0  0  0
    4.0890    3.8565   -1.1271 C   0  0  0  0  0  0  0  0  0  0  0  0
    3.6456    2.9666   -2.1046 C   0  0  0  0  0  0  0  0  0  0  0  0
    3.2045    1.6912   -1.7427 C   0  0  0  0  0  0  0  0  0  0  0  0
    3.5776   -1.0964    0.0432 C   0  0  0  0  0  0  0  0  0  0  0  0
    4.5587    5.1171   -1.3679 O   0  0  0  0  0  0  0  0  0  0  0  0
    3.9990    5.7930   -2.5042 C   0  0  0  0  0  0  0  0  0  0  0  0
    4.6764    7.1693   -2.5986 C   0  0  0  0  0  0  0  0  0  0  0  0
    4.2614    8.0544   -3.7074 N   0  0  0  0  0  0  0  0  0  0  0  0
    5.0281    9.3195   -3.6721 C   0  0  0  0  0  0  0  0  0  0  0  0
    4.8171   10.1713   -2.4186 C   0  0  0  0  0  0  0  0  0  0  0  0
    4.3617    7.4135   -5.0368 C   0  0  0  0  0  0  0  0  0  0  0  0
    5.7403    6.8913   -5.4448 C   0  0  0  0  0  0  0  0  0  0  0  0
    3.0445   -2.7208    0.4042 Cl  0  0  0  0  0  0  0  0  0  0  0  0
    5.0517   -1.0248   -0.1673 C   0  0  0  0  0  0  0  0  0  0  0  0
    5.6039   -1.1910   -1.4431 C   0  0  0  0  0  0  0  0  0  0  0  0
    6.9897   -1.1718   -1.6247 C   0  0  0  0  0  0  0  0  0  0  0  0
    7.8395   -0.9793   -0.5350 C   0  0  0  0  0  0  0  0  0  0  0  0
    7.2973   -0.8093    0.7388 C   0  0  0  0  0  0  0  0  0  0  0  0
    5.9128   -0.8360    0.9233 C   0  0  0  0  0  0  0  0  0  0  0  0
  1  2  2  0  0  0  0
  1  6  1  0  0  0  0
  2  3  1  0  0  0  0
  3  4  2  0  0  0  0
  4  5  1  0  0  0  0
  5  6  2  0  0  0  0
  5  9  1  0  0  0  0
  7  8  1  0  0  0  0
  7 10  2  0  0  0  0
  8  9  1  0  0  0  0
  8 13  2  0  0  0  0
  9 14  2  3  0  0  0
 10 11  1  0  0  0  0
 11 12  2  0  0  0  0
 11 15  1  0  0  0  0
 12 13  1  0  0  0  0
 14 23  1  0  0  0  0
 14 24  1  0  0  0  0
 15 16  1  0  0  0  0
 16 17  1  0  0  0  0
 17 18  1  0  0  0  0
 18 19  1  0  0  0  0
 18 21  1  0  0  0  0
 19 20  1  0  0  0  0
 21 22  1  0  0  0  0
 24 25  2  0  0  0  0
 24 29  1  0  0  0  0
 25 26  1  0  0  0  0
 26 27  2  0  0  0  0
 27 28  1  0  0  0  0
 28 29  2  0  0  0  0
M  END
