575
 OpenBabel10141417513D

 14 15  0  0  0  0  0  0  0  0999 V2000
    4.8598   -1.4001   -0.3999 Cl  0  0  0  0  0  0  0  0  0  0  0  0
   -0.1296    0.8620    0.0334 Cl  0  0  0  0  0  0  0  0  0  0  0  0
    0.7149   -2.8310    1.7299 N   0  0  0  0  0  0  0  0  0  0  0  0
    2.0367   -1.3451    0.6239 N   0  0  0  0  0  0  0  0  0  0  0  0
    0.0458   -2.2625   -0.3718 N   0  0  0  0  0  0  0  0  0  0  0  0
   -0.6492   -3.3156    1.6836 C   0  0  0  0  0  0  0  0  0  0  0  0
   -0.9632   -3.2007    0.1915 C   0  0  0  0  0  0  0  0  0  0  0  0
    0.9208   -2.1222    0.5788 C   0  0  0  0  0  0  0  0  0  0  0  0
    2.3432   -0.3279   -0.3187 C   0  0  0  0  0  0  0  0  0  0  0  0
    3.6397   -0.2627   -0.8722 C   0  0  0  0  0  0  0  0  0  0  0  0
    1.4231    0.6651   -0.7151 C   0  0  0  0  0  0  0  0  0  0  0  0
    3.9967    0.7246   -1.7982 C   0  0  0  0  0  0  0  0  0  0  0  0
    1.7776    1.6411   -1.6579 C   0  0  0  0  0  0  0  0  0  0  0  0
    3.0597    1.6706   -2.2007 C   0  0  0  0  0  0  0  0  0  0  0  0
  1 10  1  0  0  0  0
  2 11  1  0  0  0  0
  3  6  1  0  0  0  0
  3  8  1  0  0  0  0
  4  8  1  0  0  0  0
  4  9  1  0  0  0  0
  5  7  1  0  0  0  0
  5  8  2  0  0  0  0
  6  7  1  0  0  0  0
  9 10  2  0  0  0  0
  9 11  1  0  0  0  0
 10 12  1  0  0  0  0
 11 13  2  0  0  0  0
 12 14  2  0  0  0  0
 13 14  1  0  0  0  0
M  END
