
 OpenBabel10141417503D

 21 23  0  0  1  0  0  0  0  0999 V2000
    2.5707    3.6972   -3.2241 Cl  0  0  0  0  0  0  0  0  0  0  0  0
    7.5921   -0.4172   -0.0592 S   0  0  0  0  0  0  0  0  0  0  0  0
    3.2346    1.0109   -0.0622 N   0  0  0  0  0  0  0  0  0  0  0  0
    4.2001    1.4523    0.9805 C   0  0  0  0  0  0  0  0  0  0  0  0
    3.8568    0.4159   -1.2785 C   0  0  0  0  0  0  0  0  0  0  0  0
    2.3379    2.1635   -0.4574 C   0  0  1  0  0  0  0  0  0  0  0  0
    5.2973    0.4238    1.3342 C   0  0  0  0  0  0  0  0  0  0  0  0
    5.2947    0.0195   -1.1330 C   0  0  0  0  0  0  0  0  0  0  0  0
    5.9607    0.0227    0.0690 C   0  0  0  0  0  0  0  0  0  0  0  0
    1.3644    1.8279   -1.5941 C   0  0  0  0  0  0  0  0  0  0  0  0
    6.1698   -0.3632   -2.1985 C   0  0  0  0  0  0  0  0  0  0  0  0
    7.4505   -0.6176   -1.7555 C   0  0  0  0  0  0  0  0  0  0  0  0
    1.4203    2.4604   -2.8510 C   0  0  0  0  0  0  0  0  0  0  0  0
    0.3842    0.8335   -1.4006 C   0  0  0  0  0  0  0  0  0  0  0  0
    0.5436    2.0901   -3.8769 C   0  0  0  0  0  0  0  0  0  0  0  0
   -0.5020    0.4828   -2.4205 C   0  0  0  0  0  0  0  0  0  0  0  0
   -0.4163    1.1038   -3.6618 C   0  0  0  0  0  0  0  0  0  0  0  0
    1.5283    2.7063    0.7532 C   0  0  0  0  0  0  0  0  0  0  0  0
    0.6917    2.0903    1.3962 O   0  0  0  0  0  0  0  0  0  0  0  0
    1.8665    4.0147    0.9841 O   0  0  0  0  0  0  0  0  0  0  0  0
    1.0796    4.6569    1.9889 C   0  0  0  0  0  0  0  0  0  0  0  0
  1 13  1  0  0  0  0
  2  9  1  0  0  0  0
  2 12  1  0  0  0  0
  3  4  1  0  0  0  0
  3  5  1  0  0  0  0
  4  7  1  0  0  0  0
  5  8  1  0  0  0  0
  6 18  1  1  0  0  0
  6 10  1  0  0  0  0
  6  3  1  0  0  0  0
  7  9  1  0  0  0  0
  8  9  2  0  0  0  0
  8 11  1  0  0  0  0
 10 13  1  0  0  0  0
 10 14  2  0  0  0  0
 11 12  2  0  0  0  0
 13 15  2  0  0  0  0
 14 16  1  0  0  0  0
 15 17  1  0  0  0  0
 16 17  2  0  0  0  0
 18 19  2  0  0  0  0
 18 20  1  0  0  0  0
 20 21  1  0  0  0  0
M  END
