628
 OpenBabel10141417543D

 22 24  0  0  1  0  0  0  0  0999 V2000
    0.9790   -0.1577   -0.5488 Cl  0  0  0  0  0  0  0  0  0  0  0  0
    8.9865    0.3324   -0.2218 O   0  0  0  0  0  0  0  0  0  0  0  0
    8.7799    2.2208   -2.9584 O   0  0  0  0  0  0  0  0  0  0  0  0
    9.0738    3.5809   -1.2272 O   0  0  0  0  0  0  0  0  0  0  0  0
    6.8579   -0.2482    0.1367 N   0  0  0  0  0  0  0  0  0  0  0  0
    6.5557    2.7430   -0.2033 N   0  0  0  0  0  0  0  0  0  0  0  0
    4.7589    1.0638   -0.0543 C   0  0  0  0  0  0  0  0  0  0  0  0
    5.4138    2.3685    0.2637 C   0  0  0  0  0  0  0  0  0  0  0  0
    5.4628   -0.1468    0.0355 C   0  0  0  0  0  0  0  0  0  0  0  0
    7.3045    1.8548   -1.1090 C   0  0  3  0  0  0  0  0  0  0  0  0
    4.7243    3.3032    1.2212 C   0  0  0  0  0  0  0  0  0  0  0  0
    7.7980    0.6350   -0.3439 C   0  0  0  0  0  0  0  0  0  0  0  0
    3.3734    1.0538   -0.2885 C   0  0  0  0  0  0  0  0  0  0  0  0
    4.7471   -1.3518    0.0298 C   0  0  0  0  0  0  0  0  0  0  0  0
    2.6841   -0.1545   -0.3300 C   0  0  0  0  0  0  0  0  0  0  0  0
    3.3615   -1.3561   -0.1505 C   0  0  0  0  0  0  0  0  0  0  0  0
    4.9426    4.6827    1.1161 C   0  0  0  0  0  0  0  0  0  0  0  0
    3.8954    2.8172    2.2431 C   0  0  0  0  0  0  0  0  0  0  0  0
    8.4593    2.6446   -1.7104 C   0  0  0  0  0  0  0  0  0  0  0  0
    4.3101    5.5634    1.9978 C   0  0  0  0  0  0  0  0  0  0  0  0
    3.2540    3.7008    3.1126 C   0  0  0  0  0  0  0  0  0  0  0  0
    3.4601    5.0727    2.9885 C   0  0  0  0  0  0  0  0  0  0  0  0
  1 15  1  0  0  0  0
  2 12  2  0  0  0  0
  3 19  1  0  0  0  0
  4 19  2  0  0  0  0
  5  9  1  0  0  0  0
  5 12  1  0  0  0  0
  6  8  2  0  0  0  0
  6 10  1  0  0  0  0
  7  8  1  0  0  0  0
  7  9  2  0  0  0  0
  7 13  1  0  0  0  0
  8 11  1  0  0  0  0
  9 14  1  0  0  0  0
 10 12  1  0  0  0  0
 10 19  1  0  0  0  0
 11 17  2  0  0  0  0
 11 18  1  0  0  0  0
 13 15  2  0  0  0  0
 14 16  2  0  0  0  0
 15 16  1  0  0  0  0
 17 20  1  0  0  0  0
 18 21  2  0  0  0  0
 20 22  2  0  0  0  0
 21 22  1  0  0  0  0
M  END
