1147
 OpenBabel10141417483D

 29 32  0  0  1  0  0  0  0  0999 V2000
    7.8880    6.5653    3.3893 Cl  0  0  0  0  0  0  0  0  0  0  0  0
    9.9969    3.2952    2.7922 S   0  0  0  0  0  0  0  0  0  0  0  0
    7.3620    1.1250    0.3440 O   0  0  0  0  0  0  0  0  0  0  0  0
   12.2860    0.0246    0.5808 O   0  0  0  0  0  0  0  0  0  0  0  0
   12.2633    2.2066    0.1324 O   0  0  0  0  0  0  0  0  0  0  0  0
    5.4287    4.9244    0.8019 O   0  0  0  0  0  0  0  0  0  0  0  0
    3.1968    4.8523    4.3461 O   0  0  0  0  0  0  0  0  0  0  0  0
    9.4421    2.1908    0.4516 N   0  0  0  0  0  0  0  0  0  0  0  0
    7.0502    3.8800    2.0035 N   0  0  0  0  0  0  0  0  0  0  0  0
    4.2361    4.9195    5.2255 N   0  0  0  0  0  0  0  0  0  0  0  0
    9.4498    3.5366    1.0485 C   0  0  1  0  0  0  0  0  0  0  0  0
   10.1902    1.4601    2.6370 C   0  0  0  0  0  0  0  0  0  0  0  0
   10.2504    1.1706    1.1195 C   0  0  2  0  0  0  0  0  0  0  0  0
    7.9154    3.6017    0.8080 C   0  0  1  0  0  0  0  0  0  0  0  0
    8.0803    2.1073    0.4268 C   0  0  0  0  0  0  0  0  0  0  0  0
   11.4314    1.0371    3.4321 C   0  0  0  0  0  0  0  0  0  0  0  0
    8.9592    0.8032    3.2872 C   0  0  0  0  0  0  0  0  0  0  0  0
   11.6678    1.2258    0.5490 C   0  0  0  0  0  0  0  0  0  0  0  0
    5.8442    4.5394    1.8921 C   0  0  0  0  0  0  0  0  0  0  0  0
    5.0600    4.7090    3.1088 C   0  0  0  0  0  0  0  0  0  0  0  0
    5.3756    4.8759    4.5081 C   0  0  0  0  0  0  0  0  0  0  0  0
    3.6730    4.7596    3.0867 C   0  0  0  0  0  0  0  0  0  0  0  0
    6.6428    4.9596    5.2581 C   0  0  0  0  0  0  0  0  0  0  0  0
    2.6385    4.7159    2.0314 C   0  0  0  0  0  0  0  0  0  0  0  0
    7.8220    5.5569    4.7928 C   0  0  0  0  0  0  0  0  0  0  0  0
    6.6626    4.4384    6.5739 C   0  0  0  0  0  0  0  0  0  0  0  0
    9.0120    5.4509    5.5309 C   0  0  0  0  0  0  0  0  0  0  0  0
    7.8290    4.4125    7.3422 C   0  0  0  0  0  0  0  0  0  0  0  0
    9.0193    4.8672    6.7958 C   0  0  0  0  0  0  0  0  0  0  0  0
  1 25  1  0  0  0  0
  2 12  1  0  0  0  0
  3 15  2  0  0  0  0
  4 18  1  0  0  0  0
  5 18  2  0  0  0  0
  6 19  2  0  0  0  0
  7 10  1  0  0  0  0
  7 22  1  0  0  0  0
  8 11  1  0  0  0  0
  8 13  1  0  0  0  0
  8 15  1  0  0  0  0
  9 19  1  0  0  0  0
 10 21  2  0  0  0  0
 11  2  1  1  0  0  0
 11 14  1  0  0  0  0
 12 13  1  0  0  0  0
 12 16  1  0  0  0  0
 12 17  1  0  0  0  0
 13 18  1  6  0  0  0
 14 15  1  0  0  0  0
 14  9  1  1  0  0  0
 19 20  1  0  0  0  0
 20 21  1  0  0  0  0
 20 22  2  0  0  0  0
 21 23  1  0  0  0  0
 22 24  1  0  0  0  0
 23 25  1  0  0  0  0
 23 26  2  0  0  0  0
 25 27  2  0  0  0  0
 26 28  1  0  0  0  0
 27 29  1  0  0  0  0
 28 29  2  0  0  0  0
M  END
