803
 OpenBabel10141417523D

 81 81  0  0  1  0  0  0  0  0999 V2000
   20.3048   -0.3681   -0.7879 O   0  0  0  0  0  0  0  0  0  0  0  0
   23.6328   -1.6163   -1.4879 O   0  0  0  0  0  0  0  0  0  0  0  0
   16.0418    2.4765   -0.4333 O   0  0  0  0  0  0  0  0  0  0  0  0
   14.4751   -0.7975    2.1315 O   0  0  0  0  0  0  0  0  0  0  0  0
   22.8097   -0.1541    3.0876 O   0  0  0  0  0  0  0  0  0  0  0  0
   18.0653   -0.7944   -2.2234 O   0  0  0  0  0  0  0  0  0  0  0  0
   21.4299    1.4834    5.0624 O   0  0  0  0  0  0  0  0  0  0  0  0
   20.7685   -3.4709    5.0038 O   0  0  0  0  0  0  0  0  0  0  0  0
   11.5713    4.6252   -1.9100 O   0  0  0  0  0  0  0  0  0  0  0  0
   18.6840    0.6024    5.0648 O   0  0  0  0  0  0  0  0  0  0  0  0
   14.4888    3.1234   -2.6118 O   0  0  0  0  0  0  0  0  0  0  0  0
    9.5226    0.4709   -3.4737 O   0  0  0  0  0  0  0  0  0  0  0  0
    9.6343   -0.4850   -9.1491 O   0  0  0  0  0  0  0  0  0  0  0  0
   21.6262    1.3041   -1.6807 N   0  0  0  0  0  0  0  0  0  0  0  0
   18.1114    1.6144    0.5081 N   0  0  0  0  0  0  0  0  0  0  0  0
   23.2785    0.1586   -0.0968 N   0  0  0  0  0  0  0  0  0  0  0  0
   15.9909    0.9159    2.2584 N   0  0  0  0  0  0  0  0  0  0  0  0
   17.3237   -0.9870   -0.1670 N   0  0  0  0  0  0  0  0  0  0  0  0
   23.0125   -2.2252    2.2432 N   0  0  0  0  0  0  0  0  0  0  0  0
   18.5358   -1.6566    4.7821 N   0  0  0  0  0  0  0  0  0  0  0  0
   14.7939    1.0068   -2.0635 N   0  0  0  0  0  0  0  0  0  0  0  0
   21.4584   -1.3301    4.8288 N   0  0  0  0  0  0  0  0  0  0  0  0
   11.5430    1.2809   -4.1894 N   0  0  0  0  0  0  0  0  0  0  0  0
   10.2916    0.1143   -7.2076 N   0  0  0  0  0  0  0  0  0  0  0  0
   14.2607    5.6501    0.2689 N   0  0  0  0  0  0  0  0  0  0  0  0
   24.7758    3.4775    2.2697 N   0  0  0  0  0  0  0  0  0  0  0  0
   25.4778   -1.5640    4.2067 N   0  0  0  0  0  0  0  0  0  0  0  0
   19.5172    4.9848   -1.5660 N   0  0  0  0  0  0  0  0  0  0  0  0
   13.1694   -2.2608   -6.6114 N   0  0  0  0  0  0  0  0  0  0  0  0
   19.8063    1.8915   -0.0100 C   0  0  2  0  0  0  0  0  0  0  0  0
   22.4538    0.3478   -2.4417 C   0  0  1  0  0  0  0  0  0  0  0  0
   20.6357    3.1453    0.6431 C   0  0  0  0  0  0  0  0  0  0  0  0
   23.4371    0.9871   -3.4866 C   0  0  0  0  0  0  0  0  0  0  0  0
   20.9228    2.9286    2.0813 C   0  0  0  0  0  0  0  0  0  0  0  0
   22.8164    1.7600   -4.7059 C   0  0  0  0  0  0  0  0  0  0  0  0
   20.5728    0.8226   -0.8602 C   0  0  0  0  0  0  0  0  0  0  0  0
   15.5132    1.9254    1.3874 C   0  0  2  0  0  0  0  0  0  0  0  0
   23.1647   -0.4975   -1.3118 C   0  0  0  0  0  0  0  0  0  0  0  0
   24.1009   -0.2307    1.0321 C   0  0  1  0  0  0  0  0  0  0  0  0
   16.7367    2.1036    0.4983 C   0  0  0  0  0  0  0  0  0  0  0  0
   16.6547   -1.2997    1.2533 C   0  0  1  0  0  0  0  0  0  0  0  0
   21.6824    4.0744    2.7378 C   0  0  0  0  0  0  0  0  0  0  0  0
   19.5614    2.9355    2.7257 C   0  0  0  0  0  0  0  0  0  0  0  0
   14.8583    3.4205    1.6330 C   0  0  0  0  0  0  0  0  0  0  0  0
   21.9825    2.9713   -4.2939 C   0  0  0  0  0  0  0  0  0  0  0  0
   21.9566    0.9211   -5.6575 C   0  0  0  0  0  0  0  0  0  0  0  0
   17.7393   -1.6383    2.3927 C   0  0  0  0  0  0  0  0  0  0  0  0
   24.9013    1.0564    1.4807 C   0  0  0  0  0  0  0  0  0  0  0  0
   15.5955   -0.3636    1.8651 C   0  0  0  0  0  0  0  0  0  0  0  0
   22.6544   -3.0390    3.4727 C   0  0  1  0  0  0  0  0  0  0  0  0
   16.5625    1.2012   -1.9809 C   0  0  2  0  0  0  0  0  0  0  0  0
   23.2533   -0.8693    2.1938 C   0  0  0  0  0  0  0  0  0  0  0  0
   17.3368   -1.6310    3.9156 C   0  0  0  0  0  0  0  0  0  0  0  0
   11.3044   -0.9060  -11.4209 C   0  0  3  0  0  0  0  0  0  0  0  0
   12.4374   -1.8328  -10.9268 C   0  0  0  0  0  0  0  0  0  0  0  0
   20.6122   -0.7005    5.8485 C   0  0  1  0  0  0  0  0  0  0  0  0
   14.7555    4.2764    0.3110 C   0  0  0  0  0  0  0  0  0  0  0  0
   17.2990   -0.2693   -1.3815 C   0  0  0  0  0  0  0  0  0  0  0  0
   12.1243   -2.4669   -9.6012 C   0  0  0  0  0  0  0  0  0  0  0  0
   23.8674   -3.5098    4.3318 C   0  0  0  0  0  0  0  0  0  0  0  0
   12.0994    2.1357   -2.9402 C   0  0  2  0  0  0  0  0  0  0  0  0
   17.3761    2.9714   -1.9886 C   0  0  0  0  0  0  0  0  0  0  0  0
   24.0603    2.2696    1.8852 C   0  0  0  0  0  0  0  0  0  0  0  0
   21.4941   -2.6372    4.4576 C   0  0  0  0  0  0  0  0  0  0  0  0
    9.8873   -1.6010  -11.4492 C   0  0  0  0  0  0  0  0  0  0  0  0
   21.2464    0.6852    6.2360 C   0  0  1  0  0  0  0  0  0  0  0  0
   10.1626   -0.3766   -5.7642 C   0  0  1  0  0  0  0  0  0  0  0  0
   19.1860   -0.5112    5.2170 C   0  0  0  0  0  0  0  0  0  0  0  0
   11.7553   -1.3981   -8.5905 C   0  0  0  0  0  0  0  0  0  0  0  0
   13.8828    2.0507   -2.4318 C   0  0  0  0  0  0  0  0  0  0  0  0
   10.9530    3.4861   -2.5567 C   0  0  1  0  0  0  0  0  0  0  0  0
   11.3753    0.5472  -10.8341 C   0  0  0  0  0  0  0  0  0  0  0  0
   24.7260   -2.4678    5.0560 C   0  0  0  0  0  0  0  0  0  0  0  0
   10.7151   -1.8037   -5.4857 C   0  0  0  0  0  0  0  0  0  0  0  0
   10.3557    0.5718   -4.3789 C   0  0  0  0  0  0  0  0  0  0  0  0
   18.7744    3.6822   -1.6840 C   0  0  0  0  0  0  0  0  0  0  0  0
   10.4394   -0.6066   -8.3966 C   0  0  0  0  0  0  0  0  0  0  0  0
    9.8308   -2.6388  -12.5457 C   0  0  0  0  0  0  0  0  0  0  0  0
   22.6449    0.6344    6.8484 C   0  0  0  0  0  0  0  0  0  0  0  0
    9.3708    3.2854   -2.2143 C   0  0  0  0  0  0  0  0  0  0  0  0
   12.2190   -2.1933   -5.5222 C   0  0  0  0  0  0  0  0  0  0  0  0
  1 36  2  0  0  0  0
  2 38  2  0  0  0  0
  3 40  2  0  0  0  0
  4 49  2  0  0  0  0
  5 52  2  0  0  0  0
  6 58  2  0  0  0  0
  8 64  2  0  0  0  0
 10 68  2  0  0  0  0
 11 70  2  0  0  0  0
 12 75  2  0  0  0  0
 13 77  2  0  0  0  0
 14 31  1  0  0  0  0
 14 36  1  0  0  0  0
 15 30  1  0  0  0  0
 15 40  1  0  0  0  0
 16 38  1  0  0  0  0
 16 39  1  0  0  0  0
 17 37  1  0  0  0  0
 17 49  1  0  0  0  0
 18 58  1  0  0  0  0
 19 50  1  0  0  0  0
 19 52  1  0  0  0  0
 20 53  1  0  0  0  0
 20 68  1  0  0  0  0
 21 70  1  0  0  0  0
 22 64  1  0  0  0  0
 23 75  1  0  0  0  0
 24 77  1  0  0  0  0
 25 57  1  0  0  0  0
 26 63  1  0  0  0  0
 27 73  1  0  0  0  0
 28 76  1  0  0  0  0
 29 81  1  0  0  0  0
 30 36  1  0  0  0  0
 30 32  1  6  0  0  0
 31 38  1  0  0  0  0
 31 33  1  1  0  0  0
 32 34  1  0  0  0  0
 33 35  1  0  0  0  0
 34 42  1  0  0  0  0
 34 43  1  0  0  0  0
 35 45  1  0  0  0  0
 35 46  1  0  0  0  0
 37 40  1  0  0  0  0
 37 44  1  1  0  0  0
 39 48  1  1  0  0  0
 39 52  1  0  0  0  0
 41 18  1  6  0  0  0
 41 47  1  0  0  0  0
 41 49  1  0  0  0  0
 44 57  1  0  0  0  0
 47 53  1  0  0  0  0
 48 63  1  0  0  0  0
 50 60  1  1  0  0  0
 50 64  1  0  0  0  0
 51 21  1  1  0  0  0
 51 58  1  0  0  0  0
 51 62  1  0  0  0  0
 54 55  1  0  0  0  0
 54 65  1  0  0  0  0
 54 72  1  0  0  0  0
 55 59  1  0  0  0  0
 56 22  1  6  0  0  0
 56 68  1  0  0  0  0
 59 69  1  0  0  0  0
 60 73  1  0  0  0  0
 61 23  1  1  0  0  0
 61 70  1  0  0  0  0
 62 76  1  0  0  0  0
 65 78  1  0  0  0  0
 66 79  1  6  0  0  0
 66 56  1  0  0  0  0
 66  7  1  0  0  0  0
 67 24  1  6  0  0  0
 67 74  1  0  0  0  0
 67 75  1  0  0  0  0
 69 77  1  0  0  0  0
 71 80  1  1  0  0  0
 71 61  1  0  0  0  0
 71  9  1  0  0  0  0
 74 81  1  0  0  0  0
M  END
