1111
 OpenBabel10141417513D

107107  0  0  1  0  0  0  0  0999 V2000
   11.7977    2.1119   11.7183 S   0  0  0  0  0  0  0  0  0  0  0  0
   10.1218  -12.1847   -0.0281 S   0  0  0  0  0  0  0  0  0  0  0  0
   17.1813  -14.0584    9.4424 S   0  0  0  0  0  0  0  0  0  0  0  0
    8.4255   -5.8053   11.5572 S   0  0  0  0  0  0  0  0  0  0  0  0
   11.5210    1.2310   27.0115 S   0  0  0  0  0  0  0  0  0  0  0  0
    9.0963   -5.4509    4.0163 O   0  0  0  0  0  0  0  0  0  0  0  0
   12.4129   -7.5382    5.8944 O   0  0  0  0  0  0  0  0  0  0  0  0
   11.7268   -5.3850    7.7998 O   0  0  0  0  0  0  0  0  0  0  0  0
   13.8819   -4.9995   10.2939 O   0  0  0  0  0  0  0  0  0  0  0  0
   13.1280  -11.7628    5.2914 O   0  0  0  0  0  0  0  0  0  0  0  0
   13.3351   -5.8113   15.6309 O   0  0  0  0  0  0  0  0  0  0  0  0
   16.9622  -13.3517   12.2331 O   0  0  0  0  0  0  0  0  0  0  0  0
   12.6306  -11.5337    8.3602 O   0  0  0  0  0  0  0  0  0  0  0  0
   14.8542   -1.1355   17.7303 O   0  0  0  0  0  0  0  0  0  0  0  0
   15.6883  -10.7335   12.6381 O   0  0  0  0  0  0  0  0  0  0  0  0
   12.8569   -2.7054   15.1191 O   0  0  0  0  0  0  0  0  0  0  0  0
   13.4920   -0.5900   19.7150 O   0  0  0  0  0  0  0  0  0  0  0  0
    9.0369   -0.8846   22.3509 O   0  0  0  0  0  0  0  0  0  0  0  0
   10.8553    2.4027   12.8067 O   0  5  0  0  0  0  0  0  0  0  0  0
   13.1028    1.6253   12.1644 O   0  0  0  0  0  0  0  0  0  0  0  0
   11.8644    3.1667   10.7047 O   0  0  0  0  0  0  0  0  0  0  0  0
    9.6617  -11.3097    1.0442 O   0  5  0  0  0  0  0  0  0  0  0  0
    9.9031  -11.6414   -1.3777 O   0  0  0  0  0  0  0  0  0  0  0  0
    9.7518  -13.5941    0.0969 O   0  0  0  0  0  0  0  0  0  0  0  0
   16.9370  -14.0242    8.0338 O   0  5  0  0  0  0  0  0  0  0  0  0
   18.5845  -14.2609    9.8729 O   0  0  0  0  0  0  0  0  0  0  0  0
   16.3653  -15.1479   10.0116 O   0  0  0  0  0  0  0  0  0  0  0  0
    7.6981   -4.8682   12.5492 O   0  5  0  0  0  0  0  0  0  0  0  0
    9.1182   -5.0075   10.5635 O   0  0  0  0  0  0  0  0  0  0  0  0
    7.6998   -7.0136   11.3421 O   0  0  0  0  0  0  0  0  0  0  0  0
   12.2414    2.2353   27.8018 O   0  5  0  0  0  0  0  0  0  0  0  0
   10.5711    1.8030   26.0585 O   0  0  0  0  0  0  0  0  0  0  0  0
   11.0038    0.1154   27.8045 O   0  0  0  0  0  0  0  0  0  0  0  0
   11.1079   -5.3776    5.0964 N   0  0  0  0  0  0  0  0  0  0  0  0
    9.7929   -4.2445    7.4764 N   0  0  0  0  0  0  0  0  0  0  0  0
   13.0145   -8.2397    3.8492 N   0  0  0  0  0  0  0  0  0  0  0  0
   11.6888   -4.4770   10.6915 N   0  0  0  0  0  0  0  0  0  0  0  0
   12.2352   -5.4875   13.6472 N   0  0  0  0  0  0  0  0  0  0  0  0
   14.1373   -9.9869    6.2272 N   0  0  0  0  0  0  0  0  0  0  0  0
   14.4500  -12.4342    9.3522 N   0  0  0  0  0  0  0  0  0  0  0  0
   11.2143   -3.5271   16.4631 N   0  0  0  0  0  0  0  0  0  0  0  0
   13.9224   -9.7302   11.7406 N   0  0  0  0  0  0  0  0  0  0  0  0
   10.9885   -0.6239   11.4951 N   0  0  0  0  0  0  0  0  0  0  0  0
   12.7815  -12.5887    1.2219 N   0  0  0  0  0  0  0  0  0  0  0  0
   11.6276   -0.8270   18.4027 N   0  0  0  0  0  0  0  0  0  0  0  0
   10.1093    0.4448   20.8360 N   0  0  0  0  0  0  0  0  0  0  0  0
   17.5689  -10.8067   10.0039 N   0  0  0  0  0  0  0  0  0  0  0  0
    9.8375   -7.2114   13.5324 N   0  0  0  0  0  0  0  0  0  0  0  0
   12.6880   -0.5468   24.8831 N   0  0  0  0  0  0  0  0  0  0  0  0
    9.0922   -5.0924    6.4239 C   0  0  3  0  0  0  0  0  0  0  0  0
   12.0027   -5.9189    4.0777 C   0  0  3  0  0  0  0  0  0  0  0  0
    8.5974   -6.5147    6.8143 C   0  0  0  0  0  0  0  0  0  0  0  0
   13.1085   -4.8827    3.6958 C   0  0  0  0  0  0  0  0  0  0  0  0
    7.3472   -6.5870    7.6894 C   0  0  0  0  0  0  0  0  0  0  0  0
   14.0727   -4.4035    4.8249 C   0  0  0  0  0  0  0  0  0  0  0  0
    9.7554   -5.2642    5.0391 C   0  0  0  0  0  0  0  0  0  0  0  0
   11.3720   -3.5968    9.5037 C   0  0  3  0  0  0  0  0  0  0  0  0
   12.4784   -7.2908    4.6898 C   0  0  0  0  0  0  0  0  0  0  0  0
   12.6811   -9.6927    4.0631 C   0  0  3  0  0  0  0  0  0  0  0  0
   10.9669   -4.4984    8.1941 C   0  0  0  0  0  0  0  0  0  0  0  0
   13.0947   -5.9025   12.4903 C   0  0  3  0  0  0  0  0  0  0  0  0
   10.2621   -2.5216    9.7363 C   0  0  0  0  0  0  0  0  0  0  0  0
   12.8363  -10.4141    2.6487 C   0  0  0  0  0  0  0  0  0  0  0  0
    7.7337   -5.9910    8.9636 C   0  0  0  0  0  0  0  0  0  0  0  0
    6.1214   -5.7938    7.3198 C   0  0  0  0  0  0  0  0  0  0  0  0
   15.1508   -3.4138    4.3813 C   0  0  0  0  0  0  0  0  0  0  0  0
   13.3785   -3.6571    5.9485 C   0  0  0  0  0  0  0  0  0  0  0  0
   12.9992   -7.4447   12.1859 C   0  0  0  0  0  0  0  0  0  0  0  0
   14.8914  -10.8663    7.2782 C   0  0  3  0  0  0  0  0  0  0  0  0
   12.9127   -5.0446   11.0640 C   0  0  0  0  0  0  0  0  0  0  0  0
   13.3551  -10.5556    5.2355 C   0  0  0  0  0  0  0  0  0  0  0  0
   10.9949   -4.9242   15.7595 C   0  0  3  0  0  0  0  0  0  0  0  0
    5.9060    5.6491   19.8792 C   0  0  3  0  0  0  0  0  0  0  0  0
   10.0683   -1.5823   10.9352 C   0  0  0  0  0  0  0  0  0  0  0  0
    6.8140    4.4064   20.0588 C   0  0  0  0  0  0  0  0  0  0  0  0
   14.1886   -8.3957   12.4496 C   0  0  0  0  0  0  0  0  0  0  0  0
   12.5292  -11.9369    2.5242 C   0  0  0  0  0  0  0  0  0  0  0  0
   16.0482   -9.9252    7.8507 C   0  0  0  0  0  0  0  0  0  0  0  0
    6.3796    2.9982   20.5882 C   0  0  0  0  0  0  0  0  0  0  0  0
   14.3910  -12.3214   11.0800 C   0  0  3  0  0  0  0  0  0  0  0  0
   12.3145   -5.4871   15.0077 C   0  0  0  0  0  0  0  0  0  0  0  0
    9.5791   -5.0861   15.0289 C   0  0  0  0  0  0  0  0  0  0  0  0
    7.6899    2.2179   20.8703 C   0  0  0  0  0  0  0  0  0  0  0  0
   13.9859  -11.6508    8.3697 C   0  0  0  0  0  0  0  0  0  0  0  0
   12.3455   -1.1120   17.0328 C   0  0  3  0  0  0  0  0  0  0  0  0
    4.9609    5.9354   21.0404 C   0  0  0  0  0  0  0  0  0  0  0  0
   11.5083   -0.0354   20.9855 C   0  0  3  0  0  0  0  0  0  0  0  0
   15.4981  -13.4844   11.8792 C   0  0  3  0  0  0  0  0  0  0  0  0
   14.7040  -10.8573   11.8943 C   0  0  0  0  0  0  0  0  0  0  0  0
   17.3586  -10.2931    8.6618 C   0  0  0  0  0  0  0  0  0  0  0  0
    7.6362    0.7277   21.2154 C   0  0  0  0  0  0  0  0  0  0  0  0
    6.7530    6.9369   19.6292 C   0  0  0  0  0  0  0  0  0  0  0  0
   12.1743   -2.5525   16.1355 C   0  0  0  0  0  0  0  0  0  0  0  0
    9.0538   -6.4993   14.5345 C   0  0  0  0  0  0  0  0  0  0  0  0
   13.8611   -0.5185   16.8944 C   0  0  3  0  0  0  0  0  0  0  0  0
   11.9958   -0.7974   22.3418 C   0  0  0  0  0  0  0  0  0  0  0  0
   12.2634   -0.5311   19.6218 C   0  0  0  0  0  0  0  0  0  0  0  0
    9.0008    0.0531   21.5530 C   0  0  0  0  0  0  0  0  0  0  0  0
    4.0110    4.8012   21.3749 C   0  0  0  0  0  0  0  0  0  0  0  0
   11.0642    0.6840   10.8129 C   0  0  0  0  0  0  0  0  0  0  0  0
   12.0839    0.0700   23.6664 C   0  0  0  0  0  0  0  0  0  0  0  0
   15.2523  -14.3431   13.0717 C   0  0  0  0  0  0  0  0  0  0  0  0
   11.9247  -12.1333    0.0927 C   0  0  0  0  0  0  0  0  0  0  0  0
   14.0155    1.0075   17.1149 C   0  0  0  0  0  0  0  0  0  0  0  0
   16.8020  -12.0252   10.0913 C   0  0  0  0  0  0  0  0  0  0  0  0
    9.8043   -6.4276   12.3268 C   0  0  0  0  0  0  0  0  0  0  0  0
   12.8488    0.4984   25.9872 C   0  0  0  0  0  0  0  0  0  0  0  0
  1 19  1  0  0  0  0
  1 20  2  0  0  0  0
  1 21  2  0  0  0  0
  1100  1  0  0  0  0
  2 22  1  0  0  0  0
  2 23  2  0  0  0  0
  2 24  2  0  0  0  0
  2103  1  0  0  0  0
  3 25  1  0  0  0  0
  3 26  2  0  0  0  0
  3 27  2  0  0  0  0
  3105  1  0  0  0  0
  4 28  1  0  0  0  0
  4 29  2  0  0  0  0
  4 30  2  0  0  0  0
  4106  1  0  0  0  0
  5 31  1  0  0  0  0
  5 32  2  0  0  0  0
  5 33  2  0  0  0  0
  5107  1  0  0  0  0
  6 56  2  0  0  0  0
  7 58  2  0  0  0  0
  8 60  2  0  0  0  0
  9 70  2  0  0  0  0
 10 71  2  0  0  0  0
 11 81  2  0  0  0  0
 12 88  1  0  0  0  0
 13 84  2  0  0  0  0
 14 95  1  0  0  0  0
 15 89  2  0  0  0  0
 16 93  2  0  0  0  0
 17 97  2  0  0  0  0
 18 98  2  0  0  0  0
 34 51  1  0  0  0  0
 34 56  1  0  0  0  0
 35 50  1  0  0  0  0
 35 60  1  0  0  0  0
 36 58  1  0  0  0  0
 36 59  1  0  0  0  0
 37 57  1  0  0  0  0
 37 70  1  0  0  0  0
 38 61  1  0  0  0  0
 38 81  1  0  0  0  0
 39 69  1  0  0  0  0
 39 71  1  0  0  0  0
 40 80  1  0  0  0  0
 40 84  1  0  0  0  0
 41 72  1  0  0  0  0
 41 93  1  0  0  0  0
 42 76  1  0  0  0  0
 42 89  1  0  0  0  0
 43 74  1  0  0  0  0
 43100  1  0  0  0  0
 44 77  1  0  0  0  0
 44103  1  0  0  0  0
 45 85  1  0  0  0  0
 45 97  1  0  0  0  0
 46 87  1  0  0  0  0
 46 98  1  0  0  0  0
 47 90  1  0  0  0  0
 47105  1  0  0  0  0
 48 94  1  0  0  0  0
 48106  1  0  0  0  0
 49101  1  0  0  0  0
 49107  1  0  0  0  0
 50 52  1  0  0  0  0
 50 56  1  0  0  0  0
 51 53  1  0  0  0  0
 51 58  1  0  0  0  0
 52 54  1  0  0  0  0
 53 55  1  0  0  0  0
 54 64  1  0  0  0  0
 54 65  1  0  0  0  0
 55 66  1  0  0  0  0
 55 67  1  0  0  0  0
 57 60  1  0  0  0  0
 57 62  1  0  0  0  0
 59 63  1  0  0  0  0
 59 71  1  0  0  0  0
 61 68  1  0  0  0  0
 61 70  1  0  0  0  0
 62 74  1  0  0  0  0
 63 77  1  0  0  0  0
 68 76  1  0  0  0  0
 69 78  1  0  0  0  0
 69 84  1  0  0  0  0
 72 81  1  0  0  0  0
 72 82  1  0  0  0  0
 73 75  1  0  0  0  0
 73 86  1  0  0  0  0
 73 92  1  0  0  0  0
 75 79  1  0  0  0  0
 78 90  1  0  0  0  0
 79 83  1  0  0  0  0
 80 88  1  0  0  0  0
 80 89  1  0  0  0  0
 82 94  1  0  0  0  0
 83 91  1  0  0  0  0
 85 93  1  0  0  0  0
 85 95  1  0  0  0  0
 86 99  1  0  0  0  0
 87 96  1  0  0  0  0
 87 97  1  0  0  0  0
 88102  1  0  0  0  0
 91 98  1  0  0  0  0
 95104  1  0  0  0  0
 96101  1  0  0  0  0
M  CHG  5  19  -1  22  -1  25  -1  28  -1  31  -1
M  END
