872
 OpenBabel10141417513D

 38 43  0  0  0  0  0  0  0  0999 V2000
    2.5200   -0.1774    0.1145 O   0  0  0  0  0  0  0  0  0  0  0  0
    3.6594    6.6119   -0.6772 O   0  0  0  0  0  0  0  0  0  0  0  0
    3.2764   -1.0136   -1.9045 N   0  0  0  0  0  0  0  0  0  0  0  0
    5.3957   -4.6654   -2.3275 N   0  0  0  0  0  0  0  0  0  0  0  0
    6.6185   -3.1549   -3.4039 N   0  0  0  0  0  0  0  0  0  0  0  0
    5.4257    5.2662   -1.4040 N   0  0  0  0  0  0  0  0  0  0  0  0
    3.1055   -3.5598   -2.3478 C   0  0  0  0  0  0  0  0  0  0  0  0
    2.8329   -2.3460   -1.4551 C   0  0  0  0  0  0  0  0  0  0  0  0
    4.5505   -3.6413   -2.6442 C   0  0  0  0  0  0  0  0  0  0  0  0
    5.3250   -2.7097   -3.2875 C   0  0  0  0  0  0  0  0  0  0  0  0
    3.6810   -0.7980   -3.2645 C   0  0  0  0  0  0  0  0  0  0  0  0
    4.7581   -1.5049   -3.8622 C   0  0  0  0  0  0  0  0  0  0  0  0
    6.6436   -4.3302   -2.8009 C   0  0  0  0  0  0  0  0  0  0  0  0
    3.1188    0.0225   -0.9486 C   0  0  0  0  0  0  0  0  0  0  0  0
    3.0932    0.2644   -3.9738 C   0  0  0  0  0  0  0  0  0  0  0  0
    5.2955   -1.0425   -5.0735 C   0  0  0  0  0  0  0  0  0  0  0  0
    3.7288    1.3866   -1.1173 C   0  0  0  0  0  0  0  0  0  0  0  0
    3.6341    0.7033   -5.1834 C   0  0  0  0  0  0  0  0  0  0  0  0
    4.7517    0.0691   -5.7174 C   0  0  0  0  0  0  0  0  0  0  0  0
    7.8145   -5.2264   -2.6362 C   0  0  0  0  0  0  0  0  0  0  0  0
    3.1648    2.4621   -0.4144 C   0  0  0  0  0  0  0  0  0  0  0  0
    4.8870    1.6270   -1.8614 C   0  0  0  0  0  0  0  0  0  0  0  0
    4.8522    3.9817   -1.2671 C   0  0  0  0  0  0  0  0  0  0  0  0
    3.7346    3.7413   -0.4697 C   0  0  0  0  0  0  0  0  0  0  0  0
    5.4157    2.9175   -1.9677 C   0  0  0  0  0  0  0  0  0  0  0  0
    5.4555    7.6912   -1.7457 C   0  0  0  0  0  0  0  0  0  0  0  0
    6.2415    7.7954   -2.9379 C   0  0  0  0  0  0  0  0  0  0  0  0
    4.7755    6.4631   -1.2247 C   0  0  0  0  0  0  0  0  0  0  0  0
    6.6086    6.6946   -3.8967 C   0  0  0  0  0  0  0  0  0  0  0  0
    5.2450    8.8333   -0.9303 C   0  0  0  0  0  0  0  0  0  0  0  0
    6.7516    9.0919   -3.2139 C   0  0  0  0  0  0  0  0  0  0  0  0
    5.8025   10.0694   -1.2306 C   0  0  0  0  0  0  0  0  0  0  0  0
    6.5598   10.1983   -2.3791 C   0  0  0  0  0  0  0  0  0  0  0  0
    7.8744    6.7007   -4.5285 C   0  0  0  0  0  0  0  0  0  0  0  0
    5.7817    5.6047   -4.2213 C   0  0  0  0  0  0  0  0  0  0  0  0
    8.3003    5.6757   -5.3824 C   0  0  0  0  0  0  0  0  0  0  0  0
    6.2417    4.5249   -4.9970 C   0  0  0  0  0  0  0  0  0  0  0  0
    7.4996    4.5628   -5.5826 C   0  0  0  0  0  0  0  0  0  0  0  0
  1 14  2  0  0  0  0
  2 28  2  0  0  0  0
  3  8  1  0  0  0  0
  3 11  1  0  0  0  0
  3 14  1  0  0  0  0
  4  9  1  0  0  0  0
  4 13  1  0  0  0  0
  5 10  1  0  0  0  0
  5 13  2  0  0  0  0
  6 23  1  0  0  0  0
  6 28  1  0  0  0  0
  7  8  1  0  0  0  0
  7  9  1  0  0  0  0
  9 10  2  0  0  0  0
 10 12  1  0  0  0  0
 11 12  1  0  0  0  0
 11 15  2  0  0  0  0
 12 16  2  0  0  0  0
 13 20  1  0  0  0  0
 14 17  1  0  0  0  0
 15 18  1  0  0  0  0
 16 19  1  0  0  0  0
 17 21  2  0  0  0  0
 17 22  1  0  0  0  0
 18 19  2  0  0  0  0
 21 24  1  0  0  0  0
 22 25  2  0  0  0  0
 23 24  2  0  0  0  0
 23 25  1  0  0  0  0
 26 27  1  0  0  0  0
 26 28  1  0  0  0  0
 26 30  2  0  0  0  0
 27 29  1  0  0  0  0
 27 31  2  0  0  0  0
 29 34  2  0  0  0  0
 29 35  1  0  0  0  0
 30 32  1  0  0  0  0
 31 33  1  0  0  0  0
 32 33  2  0  0  0  0
 34 36  1  0  0  0  0
 35 37  2  0  0  0  0
 36 38  2  0  0  0  0
 37 38  1  0  0  0  0
M  END
