148
 OpenBabel10141417483D

  9  8  0  0  0  0  0  0  0  0999 V2000
    2.9207   -2.9873   -1.9304 O   0  0  0  0  0  0  0  0  0  0  0  0
    4.6796   -1.6821   -2.3531 O   0  0  0  0  0  0  0  0  0  0  0  0
    5.0716   -1.4043    0.5659 N   0  0  0  0  0  0  0  0  0  0  0  0
    5.6746   -3.5822    0.9988 N   0  0  0  0  0  0  0  0  0  0  0  0
    7.3404   -2.1235    0.6891 N   0  0  0  0  0  0  0  0  0  0  0  0
    3.7811   -1.7906   -0.0515 C   0  0  0  0  0  0  0  0  0  0  0  0
    5.3671    0.0211    0.4687 C   0  0  0  0  0  0  0  0  0  0  0  0
    6.0704   -2.3227    0.7231 C   0  0  0  0  0  0  0  0  0  0  0  0
    3.9014   -2.1450   -1.5281 C   0  0  0  0  0  0  0  0  0  0  0  0
  1  9  1  0  0  0  0
  2  9  2  0  0  0  0
  3  6  1  0  0  0  0
  3  7  1  0  0  0  0
  3  8  1  0  0  0  0
  4  8  1  0  0  0  0
  5  8  2  0  0  0  0
  6  9  1  0  0  0  0
M  END
