265
 OpenBabel10141417483D

 15 15  0  0  0  0  0  0  0  0999 V2000
    1.5083   -0.1816   -1.0719 O   0  0  0  0  0  0  0  0  0  0  0  0
    3.6695    0.5490   -0.6271 N   0  0  0  0  0  0  0  0  0  0  0  0
    5.0190    0.2438   -0.2728 C   0  0  0  0  0  0  0  0  0  0  0  0
    3.4271    1.8109   -1.3434 C   0  0  0  0  0  0  0  0  0  0  0  0
    5.7517    1.0466    0.6238 C   0  0  0  0  0  0  0  0  0  0  0  0
    5.6249   -0.9093   -0.8074 C   0  0  0  0  0  0  0  0  0  0  0  0
    2.6129   -0.3780   -0.5744 C   0  0  0  0  0  0  0  0  0  0  0  0
    7.0722    0.6782    0.9471 C   0  0  0  0  0  0  0  0  0  0  0  0
    3.5806    1.6801   -2.8524 C   0  0  0  0  0  0  0  0  0  0  0  0
    5.2063    2.2747    1.3010 C   0  0  0  0  0  0  0  0  0  0  0  0
    6.9279   -1.2688   -0.4613 C   0  0  0  0  0  0  0  0  0  0  0  0
    7.6519   -0.4733    0.4177 C   0  0  0  0  0  0  0  0  0  0  0  0
    2.8824   -1.6340    0.1736 C   0  0  0  0  0  0  0  0  0  0  0  0
    2.5906   -2.8178   -0.3869 C   0  0  0  0  0  0  0  0  0  0  0  0
    2.9352   -4.1294    0.2365 C   0  0  0  0  0  0  0  0  0  0  0  0
  1  7  2  0  0  0  0
  2  3  1  0  0  0  0
  2  4  1  0  0  0  0
  2  7  1  0  0  0  0
  3  5  1  0  0  0  0
  3  6  2  0  0  0  0
  4  9  1  0  0  0  0
  5  8  2  0  0  0  0
  5 10  1  0  0  0  0
  6 11  1  0  0  0  0
  7 13  1  0  0  0  0
  8 12  1  0  0  0  0
 11 12  2  0  0  0  0
 13 14  2  3  0  0  0
 14 15  1  0  0  0  0
M  END
