
 OpenBabel10141417523D

 23 25  0  0  0  0  0  0  0  0999 V2000
    4.5411   -1.7098   -3.2763 C   0  0  0  0  0  0  0  0  0  0  0  0
    3.0774    1.6432   -0.7659 C   0  0  0  0  0  0  0  0  0  0  0  0
    1.0931    0.3309   -0.4987 C   0  0  0  0  0  0  0  0  0  0  0  0
    8.0171    1.9356   -1.3320 C   0  0  0  0  0  0  0  0  0  0  0  0
    8.7647    2.0550   -0.1682 C   0  0  0  0  0  0  0  0  0  0  0  0
    7.3572    0.7364   -1.6180 C   0  0  0  0  0  0  0  0  0  0  0  0
    8.8811    0.9612    0.6858 C   0  0  0  0  0  0  0  0  0  0  0  0
    7.8745   -5.3973    0.3285 C   0  0  0  0  0  0  0  0  0  0  0  0
    8.3215   -4.2546    0.9917 C   0  0  0  0  0  0  0  0  0  0  0  0
    6.6397   -3.9963   -1.2049 C   0  0  0  0  0  0  0  0  0  0  0  0
    6.5468   -6.4377   -1.4528 C   0  0  0  0  0  0  0  0  0  0  0  0
    2.9154   -0.5823   -1.7618 C   0  0  0  0  0  0  0  0  0  0  0  0
    5.1837   -1.3510   -0.8165 C   0  0  0  0  0  0  0  0  0  0  0  0
    4.4251   -0.7955   -2.0464 C   0  0  3  0  0  0  0  0  0  0  0  0
    7.0278   -5.2693   -0.7705 C   0  0  0  0  0  0  0  0  0  0  0  0
    7.3996   -0.3594   -0.7375 C   0  0  0  0  0  0  0  0  0  0  0  0
    7.0712   -2.8297   -0.5430 C   0  0  0  0  0  0  0  0  0  0  0  0
    8.2217   -0.2472    0.4008 C   0  0  0  0  0  0  0  0  0  0  0  0
    7.9246   -2.9754    0.5673 C   0  0  0  0  0  0  0  0  0  0  0  0
    6.1490   -7.3769   -1.9975 N   0  0  0  0  0  0  0  0  0  0  0  0
    2.5574    0.2815   -0.6233 N   0  0  0  0  0  0  0  0  0  0  0  0
    6.6632   -1.5504   -1.0476 N   0  0  0  0  0  0  0  0  0  0  0  0
    8.4823   -1.5919    1.5361 S   0  0  0  0  0  0  0  0  0  0  0  0
  5  4  2  0  0  0  0
  6  4  1  0  0  0  0
  7  5  1  0  0  0  0
  9  8  2  0  0  0  0
 14  1  1  0  0  0  0
 14 12  1  0  0  0  0
 14 13  1  0  0  0  0
 15  8  1  0  0  0  0
 15 10  2  0  0  0  0
 15 11  1  0  0  0  0
 16  6  2  0  0  0  0
 17 10  1  0  0  0  0
 18  7  2  0  0  0  0
 18 16  1  0  0  0  0
 19  9  1  0  0  0  0
 19 17  2  0  0  0  0
 20 11  3  0  0  0  0
 21  2  1  0  0  0  0
 21  3  1  0  0  0  0
 21 12  1  0  0  0  0
 22 13  1  0  0  0  0
 22 16  1  0  0  0  0
 22 17  1  0  0  0  0
 23 18  1  0  0  0  0
 23 19  1  0  0  0  0
M  END
