1176
 OpenBabel10141417523D

 20 22  0  0  0  0  0  0  0  0999 V2000
    1.1332    2.4488    0.1618 N   0  0  0  0  0  0  0  0  0  0  0  0
   -0.2734    0.3249    1.8360 N   0  0  0  0  0  0  0  0  0  0  0  0
    1.8561    1.5202    1.0635 C   0  0  0  0  0  0  0  0  0  0  0  0
   -0.2387    2.6051    0.7099 C   0  0  0  0  0  0  0  0  0  0  0  0
    1.1315    2.0087   -1.2692 C   0  0  0  0  0  0  0  0  0  0  0  0
    1.1250    0.1910    1.3809 C   0  0  0  0  0  0  0  0  0  0  0  0
   -0.9939    1.2828    0.9778 C   0  0  0  0  0  0  0  0  0  0  0  0
    0.3655    2.9774   -2.1941 C   0  0  0  0  0  0  0  0  0  0  0  0
    2.5432    1.7690   -1.8329 C   0  0  0  0  0  0  0  0  0  0  0  0
   -0.3477    0.7149    3.2440 C   0  0  0  0  0  0  0  0  0  0  0  0
    0.3855    4.3704   -1.9866 C   0  0  0  0  0  0  0  0  0  0  0  0
    2.9019    0.5140   -2.3525 C   0  0  0  0  0  0  0  0  0  0  0  0
   -0.3804    2.4808   -3.2754 C   0  0  0  0  0  0  0  0  0  0  0  0
    3.5045    2.7953   -1.8518 C   0  0  0  0  0  0  0  0  0  0  0  0
   -0.3684    5.2290   -2.7877 C   0  0  0  0  0  0  0  0  0  0  0  0
    4.1784    0.2946   -2.8813 C   0  0  0  0  0  0  0  0  0  0  0  0
   -1.1217    3.3439   -4.0877 C   0  0  0  0  0  0  0  0  0  0  0  0
    4.7803    2.5730   -2.3762 C   0  0  0  0  0  0  0  0  0  0  0  0
   -1.1276    4.7152   -3.8339 C   0  0  0  0  0  0  0  0  0  0  0  0
    5.1173    1.3267   -2.8918 C   0  0  0  0  0  0  0  0  0  0  0  0
  1  3  1  0  0  0  0
  1  4  1  0  0  0  0
  1  5  1  0  0  0  0
  2  6  1  0  0  0  0
  2  7  1  0  0  0  0
  2 10  1  0  0  0  0
  3  6  1  0  0  0  0
  4  7  1  0  0  0  0
  5  8  1  0  0  0  0
  5  9  1  0  0  0  0
  8 11  2  0  0  0  0
  8 13  1  0  0  0  0
  9 12  2  0  0  0  0
  9 14  1  0  0  0  0
 11 15  1  0  0  0  0
 12 16  1  0  0  0  0
 13 17  2  0  0  0  0
 14 18  2  0  0  0  0
 15 19  2  0  0  0  0
 16 20  2  0  0  0  0
 17 19  1  0  0  0  0
 18 20  1  0  0  0  0
M  END
