
 OpenBabel10141417593D

 85 85  0  0  0  0  0  0  0  0999 V2000
    3.9173   -1.9609   -2.5269 C   0  0  3  0  0  0  0  0  0  0  0  0
    3.9840   -3.3844   -2.0805 N   0  0  0  0  0  0  0  0  0  0  0  0
    2.4254   -1.6144   -2.7141 C   0  0  0  0  0  0  0  0  0  0  0  0
    4.8883   -1.5973   -3.7161 C   0  0  3  0  0  0  0  0  0  0  0  0
    3.6207   -4.3783   -2.9974 C   0  0  0  0  0  0  0  0  0  0  0  0
    3.9114   -3.5852   -0.6435 C   0  0  0  0  0  0  0  0  0  0  0  0
    2.0384   -0.4188   -3.2268 N   0  0  0  0  0  0  0  0  0  0  0  0
    1.5109   -2.3638   -2.3315 O   0  0  0  0  0  0  0  0  0  0  0  0
    6.4020   -1.7849   -3.3369 C   0  0  3  0  0  0  0  0  0  0  0  0
    4.6380   -2.3018   -4.9343 O   0  0  0  0  0  0  0  0  0  0  0  0
    4.2423   -5.8508   -2.9120 C   0  0  3  0  0  0  0  0  0  0  0  0
    2.9555   -4.0205   -3.9887 O   0  0  0  0  0  0  0  0  0  0  0  0
    2.4618    0.8509   -2.6523 C   0  0  3  0  0  0  0  0  0  0  0  0
    6.7277   -3.2618   -3.0449 C   0  0  0  0  0  0  0  0  0  0  0  0
    4.1278   -6.6195   -4.2274 N   0  0  0  0  0  0  0  0  0  0  0  0
    3.9703   -6.6090   -1.5651 C   0  0  0  0  0  0  0  0  0  0  0  0
    2.1348    1.9688   -3.6581 C   0  0  0  0  0  0  0  0  0  0  0  0
    1.8361    1.0850   -1.2639 C   0  0  0  0  0  0  0  0  0  0  0  0
    3.7090   -7.8989   -4.3617 C   0  0  0  0  0  0  0  0  0  0  0  0
    3.9969   -5.8499   -5.4771 C   0  0  0  0  0  0  0  0  0  0  0  0
    2.4908   -6.7913   -1.3229 C   0  0  0  0  0  0  0  0  0  0  0  0
    4.6753   -7.9109   -1.1794 C   0  0  0  0  0  0  0  0  0  0  0  0
    0.7906    2.3548   -3.7898 N   0  0  0  0  0  0  0  0  0  0  0  0
    3.0465    2.5462   -4.2563 O   0  0  0  0  0  0  0  0  0  0  0  0
    4.3858   -8.8225   -5.3251 C   0  0  3  0  0  0  0  0  0  0  0  0
    2.6996   -8.2535   -3.7267 O   0  0  0  0  0  0  0  0  0  0  0  0
   -0.1053    1.5210   -4.6650 C   0  0  0  0  0  0  0  0  0  0  0  0
    0.6681    3.8007   -3.9653 C   0  0  0  0  0  0  0  0  0  0  0  0
    3.7359  -10.2813   -5.2516 N   0  0  0  0  0  0  0  0  0  0  0  0
    5.9290   -9.1018   -5.1656 C   0  0  0  0  0  0  0  0  0  0  0  0
   -1.1571    0.6119   -3.9491 C   0  0  0  0  0  0  0  0  0  0  0  0
    3.3013  -10.9572   -6.3780 C   0  0  0  0  0  0  0  0  0  0  0  0
    3.5326  -10.8244   -3.9226 C   0  0  0  0  0  0  0  0  0  0  0  0
    6.9459   -7.9806   -5.5268 C   0  0  0  0  0  0  0  0  0  0  0  0
   -1.0858   -0.7885   -4.1915 N   0  0  0  0  0  0  0  0  0  0  0  0
   -1.8312    1.0835   -3.0275 O   0  0  0  0  0  0  0  0  0  0  0  0
    2.2564  -12.1526   -6.2345 C   0  0  3  0  0  0  0  0  0  0  0  0
    6.7837   -7.4845   -6.9649 C   0  0  0  0  0  0  0  0  0  0  0  0
    7.0119   -6.8087   -4.5535 C   0  0  0  0  0  0  0  0  0  0  0  0
   -1.6493   -1.5362   -5.4295 C   0  0  3  0  0  0  0  0  0  0  0  0
   -1.2625   -1.5488   -2.9574 C   0  0  0  0  0  0  0  0  0  0  0  0
    2.6370  -13.1899   -5.2182 N   0  0  0  0  0  0  0  0  0  0  0  0
    0.8311  -11.5635   -6.0802 C   0  0  0  0  0  0  0  0  0  0  0  0
   -3.0566   -2.2116   -5.1422 C   0  0  0  0  0  0  0  0  0  0  0  0
   -1.7719   -0.6182   -6.6901 C   0  0  0  0  0  0  0  0  0  0  0  0
    1.6571  -14.1266   -4.8159 C   0  0  0  0  0  0  0  0  0  0  0  0
    3.8866  -13.8653   -5.5981 C   0  0  0  0  0  0  0  0  0  0  0  0
    0.4203  -10.5408   -7.1661 C   0  0  0  0  0  0  0  0  0  0  0  0
   -3.4659   -3.4775   -5.4806 N   0  0  0  0  0  0  0  0  0  0  0  0
   -3.9516   -1.5055   -4.6521 O   0  0  0  0  0  0  0  0  0  0  0  0
   -2.3071   -1.2981   -7.9809 C   0  0  0  0  0  0  0  0  0  0  0  0
    0.9248  -13.8873   -3.4463 C   0  0  3  0  0  0  0  0  0  0  0  0
    1.6187  -15.2503   -5.3283 O   0  0  0  0  0  0  0  0  0  0  0  0
    0.4283  -11.1310   -8.5761 C   0  0  0  0  0  0  0  0  0  0  0  0
   -2.9226   -4.9034   -5.5609 C   0  0  3  0  0  0  0  0  0  0  0  0
   -2.4478   -0.3081   -9.1483 C   0  0  0  0  0  0  0  0  0  0  0  0
   -1.4238   -2.4571   -8.4376 C   0  0  0  0  0  0  0  0  0  0  0  0
    0.6400  -12.5184   -2.9959 N   0  0  0  0  0  0  0  0  0  0  0  0
    1.7608  -14.5651   -2.3450 C   0  0  0  0  0  0  0  0  0  0  0  0
   -3.6257   -5.7356   -4.3845 C   0  0  0  0  0  0  0  0  0  0  0  0
   -3.2941   -5.5223   -6.9549 C   0  0  0  0  0  0  0  0  0  0  0  0
   -0.6504  -11.9714   -2.9267 C   0  0  0  0  0  0  0  0  0  0  0  0
   -3.1616   -7.0546   -4.0759 N   0  0  0  0  0  0  0  0  0  0  0  0
   -4.6204   -5.2775   -3.8147 O   0  0  0  0  0  0  0  0  0  0  0  0
   -2.7273   -6.9242   -7.2032 C   0  0  0  0  0  0  0  0  0  0  0  0
   -4.8061   -5.5278   -7.2509 C   0  0  0  0  0  0  0  0  0  0  0  0
   -0.7897  -10.5854   -2.1800 C   0  0  3  0  0  0  0  0  0  0  0  0
   -1.6120  -12.5648   -3.3474 O   0  0  0  0  0  0  0  0  0  0  0  0
   -2.7114   -7.2093   -2.6537 C   0  0  3  0  0  0  0  0  0  0  0  0
   -4.1998   -8.0531   -4.3622 C   0  0  0  0  0  0  0  0  0  0  0  0
   -1.6120   -9.5429   -2.8576 N   0  0  0  0  0  0  0  0  0  0  0  0
    0.5335   -9.9392   -1.7926 C   0  0  0  0  0  0  0  0  0  0  0  0
   -2.3471   -8.6496   -2.0921 C   0  0  0  0  0  0  0  0  0  0  0  0
   -1.5851   -6.2025   -2.3274 C   0  0  0  0  0  0  0  0  0  0  0  0
   -2.5575   -8.9060   -0.9038 O   0  0  0  0  0  0  0  0  0  0  0  0
   -1.0852   -6.1867   -0.8686 C   0  0  0  0  0  0  0  0  0  0  0  0
   -0.0505   -5.0776   -0.6961 C   0  0  0  0  0  0  0  0  0  0  0  0
   -2.1739   -5.9399    0.1735 C   0  0  0  0  0  0  0  0  0  0  0  0
    2.2917    2.3794   -0.5996 C   0  0  0  0  0  0  0  0  0  0  0  0
   -0.9568   -9.9509   -6.8540 C   0  0  0  0  0  0  0  0  0  0  0  0
    3.5903  -10.5460   -7.5123 O   0  0  0  0  0  0  0  0  0  0  0  0
    7.3466   -1.2426   -4.4465 C   0  0  0  0  0  0  0  0  0  0  0  0
    8.8406   -1.3366   -4.1806 C   0  0  0  0  0  0  0  0  0  0  0  0
    9.4163   -1.7085   -3.0237 C   0  0  0  0  0  0  0  0  0  0  0  0
   10.8637   -1.9547   -2.7783 C   0  0  0  0  0  0  0  0  0  0  0  0
  1  2  1  0  0  0  0
  1  3  1  0  0  0  0
  1  4  1  0  0  0  0
  2  5  1  0  0  0  0
  2  6  1  0  0  0  0
  3  7  1  0  0  0  0
  3  8  2  0  0  0  0
  4  9  1  0  0  0  0
  4 10  1  0  0  0  0
  5 11  1  0  0  0  0
  5 12  2  0  0  0  0
  7 13  1  0  0  0  0
  9 14  1  0  0  0  0
  9 82  1  0  0  0  0
 11 15  1  0  0  0  0
 11 16  1  0  0  0  0
 13 17  1  0  0  0  0
 13 18  1  0  0  0  0
 15 19  1  0  0  0  0
 15 20  1  0  0  0  0
 16 21  1  0  0  0  0
 16 22  1  0  0  0  0
 17 23  1  0  0  0  0
 17 24  2  0  0  0  0
 18 79  1  0  0  0  0
 19 25  1  0  0  0  0
 19 26  2  0  0  0  0
 23 27  1  0  0  0  0
 23 28  1  0  0  0  0
 25 29  1  0  0  0  0
 25 30  1  0  0  0  0
 27 31  1  0  0  0  0
 29 32  1  0  0  0  0
 29 33  1  0  0  0  0
 30 34  1  0  0  0  0
 31 35  1  0  0  0  0
 31 36  2  0  0  0  0
 32 81  2  0  0  0  0
 34 38  1  0  0  0  0
 34 39  1  0  0  0  0
 35 40  1  0  0  0  0
 35 41  1  0  0  0  0
 37 42  1  0  0  0  0
 37 43  1  0  0  0  0
 37 32  1  0  0  0  0
 40 44  1  0  0  0  0
 40 45  1  0  0  0  0
 42 46  1  0  0  0  0
 42 47  1  0  0  0  0
 43 48  1  0  0  0  0
 44 49  1  0  0  0  0
 44 50  2  0  0  0  0
 45 51  1  0  0  0  0
 46 52  1  0  0  0  0
 46 53  2  0  0  0  0
 48 54  1  0  0  0  0
 48 80  1  0  0  0  0
 49 55  1  0  0  0  0
 51 56  1  0  0  0  0
 51 57  1  0  0  0  0
 52 58  1  0  0  0  0
 52 59  1  0  0  0  0
 55 60  1  0  0  0  0
 55 61  1  0  0  0  0
 58 62  1  0  0  0  0
 60 63  1  0  0  0  0
 60 64  2  0  0  0  0
 61 65  1  0  0  0  0
 61 66  1  0  0  0  0
 62 67  1  0  0  0  0
 62 68  2  0  0  0  0
 63 69  1  0  0  0  0
 63 70  1  0  0  0  0
 67 71  1  0  0  0  0
 67 72  1  0  0  0  0
 69 73  1  0  0  0  0
 69 74  1  0  0  0  0
 71 73  1  0  0  0  0
 73 75  2  0  0  0  0
 74 76  1  0  0  0  0
 76 77  1  0  0  0  0
 76 78  1  0  0  0  0
 82 83  1  0  0  0  0
 83 84  2  0  0  0  0
 84 85  1  0  0  0  0
M  END
