434
 OpenBabel10141417493D

 22 25  0  0  0  0  0  0  0  0999 V2000
    0.6460    1.3411   -0.3248 N   0  0  0  0  0  0  0  0  0  0  0  0
   -0.7408   -1.2604    0.1918 C   0  0  0  0  0  0  0  0  0  0  0  0
    0.7073   -1.1913   -0.2821 C   0  0  0  0  0  0  0  0  0  0  0  0
   -1.5091   -0.0167   -0.2331 C   0  0  0  0  0  0  0  0  0  0  0  0
    1.3717    0.1379    0.1141 C   0  0  0  0  0  0  0  0  0  0  0  0
   -0.7534    1.2766    0.1342 C   0  0  0  0  0  0  0  0  0  0  0  0
   -1.2486   -2.2655    0.9538 C   0  0  0  0  0  0  0  0  0  0  0  0
   -2.6318   -2.2316    1.4905 C   0  0  0  0  0  0  0  0  0  0  0  0
   -0.3679   -3.3634    1.4248 C   0  0  0  0  0  0  0  0  0  0  0  0
    0.7454    1.5415   -1.7683 C   0  0  0  0  0  0  0  0  0  0  0  0
   -2.8393   -2.1141    2.8807 C   0  0  0  0  0  0  0  0  0  0  0  0
   -0.0266   -3.4494    2.7891 C   0  0  0  0  0  0  0  0  0  0  0  0
   -3.7263   -2.4286    0.6339 C   0  0  0  0  0  0  0  0  0  0  0  0
    0.0959   -4.3310    0.5192 C   0  0  0  0  0  0  0  0  0  0  0  0
   -1.7349   -1.9207    3.8429 C   0  0  0  0  0  0  0  0  0  0  0  0
   -0.5195   -2.4934    3.8019 C   0  0  0  0  0  0  0  0  0  0  0  0
   -4.1509   -2.1521    3.3769 C   0  0  0  0  0  0  0  0  0  0  0  0
    0.8499   -4.4633    3.2006 C   0  0  0  0  0  0  0  0  0  0  0  0
   -5.0223   -2.4844    1.1470 C   0  0  0  0  0  0  0  0  0  0  0  0
    0.9497   -5.3442    0.9500 C   0  0  0  0  0  0  0  0  0  0  0  0
   -5.2345   -2.3443    2.5164 C   0  0  0  0  0  0  0  0  0  0  0  0
    1.3358   -5.4028    2.2868 C   0  0  0  0  0  0  0  0  0  0  0  0
  1  5  1  0  0  0  0
  1  6  1  0  0  0  0
  1 10  1  0  0  0  0
  2  3  1  0  0  0  0
  2  4  1  0  0  0  0
  2  7  2  0  0  0  0
  3  5  1  0  0  0  0
  4  6  1  0  0  0  0
  7  8  1  0  0  0  0
  7  9  1  0  0  0  0
  8 11  1  0  0  0  0
  8 13  2  0  0  0  0
  9 12  1  0  0  0  0
  9 14  2  0  0  0  0
 11 15  1  0  0  0  0
 11 17  2  0  0  0  0
 12 16  1  0  0  0  0
 12 18  2  0  0  0  0
 13 19  1  0  0  0  0
 14 20  1  0  0  0  0
 15 16  2  0  0  0  0
 17 21  1  0  0  0  0
 18 22  1  0  0  0  0
 19 21  2  0  0  0  0
 20 22  2  0  0  0  0
M  END
