847
 OpenBabel10141417483D

  4  3  0  0  0  0  0  0  0  0999 V2000
    0.9242    0.0629   -0.0705 S   0  0  0  0  0  0  0  0  0  0  0  0
    4.7529   -1.3231    0.2910 N   0  0  0  0  0  0  0  0  0  0  0  0
    3.2879   -1.3197    0.2825 C   0  0  0  0  0  0  0  0  0  0  0  0
    2.7420    0.0561   -0.1045 C   0  0  0  0  0  0  0  0  0  0  0  0
  1  4  1  0  0  0  0
  2  3  1  0  0  0  0
  3  4  1  0  0  0  0
M  END
