987
 OpenBabel10141417503D

 17 18  0  0  1  0  0  0  0  0999 V2000
   -0.7260   -0.9004   -0.1473 O   0  0  0  0  0  0  0  0  0  0  0  0
    2.3657    0.9815   -0.4637 O   0  0  0  0  0  0  0  0  0  0  0  0
   -0.0144    2.5498    0.6710 O   0  0  0  0  0  0  0  0  0  0  0  0
   -2.3681    0.8829   -1.7839 O   0  0  0  0  0  0  0  0  0  0  0  0
    3.0973   -2.1822   -0.4598 O   0  0  0  0  0  0  0  0  0  0  0  0
    1.1960   -1.4060   -1.4779 N   0  0  0  0  0  0  0  0  0  0  0  0
    2.9396   -2.4861   -2.6974 N   0  0  0  0  0  0  0  0  0  0  0  0
    2.7838   -2.8055   -4.9409 N   0  0  0  0  0  0  0  0  0  0  0  0
    1.2097    0.4937    0.2092 C   0  0  1  0  0  0  0  0  0  0  0  0
   -0.0006    1.3529   -0.1030 C   0  0  1  0  0  0  0  0  0  0  0  0
    0.7233   -0.9187   -0.1882 C   0  0  1  0  0  0  0  0  0  0  0  0
   -1.1363    0.4160    0.2728 C   0  0  1  0  0  0  0  0  0  0  0  0
   -2.4728    0.7990   -0.3620 C   0  0  0  0  0  0  0  0  0  0  0  0
    0.4798   -1.2115   -2.6367 C   0  0  0  0  0  0  0  0  0  0  0  0
    2.4535   -2.0222   -1.4941 C   0  0  0  0  0  0  0  0  0  0  0  0
    0.9383   -1.6422   -3.8099 C   0  0  0  0  0  0  0  0  0  0  0  0
    2.2496   -2.3163   -3.7800 C   0  0  0  0  0  0  0  0  0  0  0  0
  1 11  1  0  0  0  0
  1 12  1  0  0  0  0
  4 13  1  0  0  0  0
  5 15  2  0  0  0  0
  6 14  1  0  0  0  0
  6 15  1  0  0  0  0
  7 15  1  0  0  0  0
  7 17  2  0  0  0  0
  8 17  1  0  0  0  0
  9  2  1  6  0  0  0
  9 10  1  0  0  0  0
  9 11  1  0  0  0  0
 10 12  1  0  0  0  0
 10  3  1  1  0  0  0
 11  6  1  6  0  0  0
 12 13  1  6  0  0  0
 14 16  2  0  0  0  0
 16 17  1  0  0  0  0
M  END
