
 OpenBabel10141417543D

 46 49  0  0  0  0  0  0  0  0999 V2000
    8.0297  -12.4096    1.9273 C   0  0  0  0  0  0  0  0  0  0  0  0
    7.6914  -10.9609    2.2538 C   0  0  0  0  0  0  0  0  0  0  0  0
    8.6999  -10.2984    3.1965 C   0  0  0  0  0  0  0  0  0  0  0  0
    8.4286   -8.7967    3.4414 C   0  0  0  0  0  0  0  0  0  0  0  0
    7.0692   -8.5167    4.1071 C   0  0  0  0  0  0  0  0  0  0  0  0
    6.7195   -7.0433    4.3699 C   0  0  0  0  0  0  0  0  0  0  0  0
    7.6060   -6.3601    5.2560 O   0  0  0  0  0  0  0  0  0  0  0  0
    7.8268   -6.8491    6.4979 C   0  0  0  0  0  0  0  0  0  0  0  0
    7.1743   -7.7294    6.9967 O   0  0  0  0  0  0  0  0  0  0  0  0
    8.8868   -6.2457    7.1204 N   0  0  0  0  0  0  0  0  0  0  0  0
    9.6951   -5.3115    6.7090 C   0  0  0  0  0  0  0  0  0  0  0  0
    9.8047   -4.5861    5.3806 C   0  0  0  0  0  0  0  0  0  0  0  0
    9.6052   -5.2074    4.1521 C   0  0  0  0  0  0  0  0  0  0  0  0
    9.6422   -4.5014    2.9466 C   0  0  0  0  0  0  0  0  0  0  0  0
    9.9773   -3.1499    2.9154 C   0  0  0  0  0  0  0  0  0  0  0  0
   10.2823   -2.5389    4.1306 C   0  0  0  0  0  0  0  0  0  0  0  0
   10.2114   -3.2469    5.3469 C   0  0  0  0  0  0  0  0  0  0  0  0
    9.8590   -2.4791    1.7054 N   0  0  0  0  0  0  0  0  0  0  0  0
   10.6842   -1.3209    1.3672 C   0  0  0  0  0  0  0  0  0  0  0  0
   11.5431   -1.4579    0.1318 C   0  0  0  0  0  0  0  0  0  0  0  0
   12.6630   -0.7758   -0.0555 N   0  0  0  0  0  0  0  0  0  0  0  0
   13.2300   -1.2901   -1.1891 C   0  0  0  0  0  0  0  0  0  0  0  0
   12.4280   -2.2483   -1.7681 C   0  0  0  0  0  0  0  0  0  0  0  0
   11.3442   -2.3306   -0.9205 N   0  0  0  0  0  0  0  0  0  0  0  0
   10.3442   -3.3489   -1.0962 C   0  0  0  0  0  0  0  0  0  0  0  0
   12.7957   -2.9468   -2.9228 C   0  0  0  0  0  0  0  0  0  0  0  0
   14.0583   -2.6619   -3.4661 C   0  0  0  0  0  0  0  0  0  0  0  0
   14.9035   -1.6817   -2.9122 C   0  0  0  0  0  0  0  0  0  0  0  0
   14.4602   -0.9906   -1.7774 C   0  0  0  0  0  0  0  0  0  0  0  0
   16.2001   -1.3988   -3.6211 C   0  0  0  0  0  0  0  0  0  0  0  0
   16.2140   -1.6483   -4.8307 O   0  0  0  0  0  0  0  0  0  0  0  0
   17.3316   -0.9295   -2.9329 N   0  0  0  0  0  0  0  0  0  0  0  0
   17.4258   -0.6890   -1.4935 C   0  0  0  0  0  0  0  0  0  0  0  0
   18.7152   -0.1630   -0.8835 C   0  0  0  0  0  0  0  0  0  0  0  0
   18.4787    0.0009    0.5970 C   0  0  0  0  0  0  0  0  0  0  0  0
   18.7172   -0.8836    1.4087 O   0  0  0  0  0  0  0  0  0  0  0  0
   17.8687    1.1870    0.8783 O   0  0  0  0  0  0  0  0  0  0  0  0
   17.3264    1.3188    2.2054 C   0  0  0  0  0  0  0  0  0  0  0  0
   18.0180    2.4395    2.9580 C   0  0  0  0  0  0  0  0  0  0  0  0
   18.5341   -0.8590   -3.6654 C   0  0  0  0  0  0  0  0  0  0  0  0
   19.3758   -1.9691   -3.6730 C   0  0  0  0  0  0  0  0  0  0  0  0
   20.6048   -1.8686   -4.3159 C   0  0  0  0  0  0  0  0  0  0  0  0
   20.9432   -0.6758   -4.9430 C   0  0  0  0  0  0  0  0  0  0  0  0
   20.0441    0.3770   -4.8799 C   0  0  0  0  0  0  0  0  0  0  0  0
   18.8637    0.3226   -4.2269 N   0  0  0  0  0  0  0  0  0  0  0  0
   10.5980   -4.9322    7.6794 N   0  0  0  0  0  0  0  0  0  0  0  0
  1  2  1  0  0  0  0
  2  3  1  0  0  0  0
  3  4  1  0  0  0  0
  4  5  1  0  0  0  0
  5  6  1  0  0  0  0
  6  7  1  0  0  0  0
  7  8  1  0  0  0  0
  8  9  2  0  0  0  0
 10  8  1  0  0  0  0
 10 11  2  3  0  0  0
 11 12  1  0  0  0  0
 11 46  1  0  0  0  0
 12 13  2  0  0  0  0
 12 17  1  0  0  0  0
 13 14  1  0  0  0  0
 14 15  2  0  0  0  0
 15 16  1  0  0  0  0
 15 18  1  0  0  0  0
 16 17  2  0  0  0  0
 18 19  1  0  0  0  0
 19 20  1  0  0  0  0
 20 21  2  0  0  0  0
 20 24  1  0  0  0  0
 21 22  1  0  0  0  0
 22 23  2  0  0  0  0
 22 29  1  0  0  0  0
 23 24  1  0  0  0  0
 23 26  1  0  0  0  0
 24 25  1  0  0  0  0
 26 27  2  0  0  0  0
 27 28  1  0  0  0  0
 28 29  2  0  0  0  0
 28 30  1  0  0  0  0
 30 31  2  0  0  0  0
 30 32  1  0  0  0  0
 32 33  1  0  0  0  0
 32 40  1  0  0  0  0
 33 34  1  0  0  0  0
 34 35  1  0  0  0  0
 35 36  2  0  0  0  0
 35 37  1  0  0  0  0
 37 38  1  0  0  0  0
 38 39  1  0  0  0  0
 40 41  2  0  0  0  0
 40 45  1  0  0  0  0
 41 42  1  0  0  0  0
 42 43  2  0  0  0  0
 43 44  1  0  0  0  0
 44 45  2  0  0  0  0
M  END
