
 OpenBabel10141417503D

 23 25  0  0  0  0  0  0  0  0999 V2000
   -1.1120   -1.1923   -0.0885 C   0  0  0  0  0  0  0  0  0  0  0  0
    0.0831   -1.3113   -0.7280 N   0  0  0  0  0  0  0  0  0  0  0  0
   -1.3336    0.1734    0.1443 N   0  0  0  0  0  0  0  0  0  0  0  0
  -10.8348   -2.3176    5.1640 N   0  3  0  0  0  0  0  0  0  0  0  0
    0.6508   -0.0965   -0.9314 C   0  0  0  0  0  0  0  0  0  0  0  0
   -6.4176    0.5962    2.9405 C   0  0  0  0  0  0  0  0  0  0  0  0
   -0.2565    0.9814   -0.3791 C   0  0  0  0  0  0  0  0  0  0  0  0
   -2.3934    0.7875    0.7560 N   0  0  0  0  0  0  0  0  0  0  0  0
   -5.4372   -0.1637    2.3733 O   0  0  0  0  0  0  0  0  0  0  0  0
   -6.0814    1.9310    2.8239 C   0  0  0  0  0  0  0  0  0  0  0  0
   -4.4770    0.6745    1.8918 C   0  0  0  0  0  0  0  0  0  0  0  0
   -3.3486    0.0666    1.2472 C   0  0  0  0  0  0  0  0  0  0  0  0
   -9.7042   -1.5733    4.5974 C   0  0  0  0  0  0  0  0  0  0  0  0
   -4.8337    1.9812    2.1496 C   0  0  0  0  0  0  0  0  0  0  0  0
  -11.7472   -1.6652    5.6911 O   0  5  0  0  0  0  0  0  0  0  0  0
   -7.5402   -0.1441    3.5092 C   0  0  0  0  0  0  0  0  0  0  0  0
  -10.8110   -3.5539    5.0820 O   0  0  0  0  0  0  0  0  0  0  0  0
   -1.8114   -2.1507    0.1981 O   0  0  0  0  0  0  0  0  0  0  0  0
    1.7268    0.0878   -1.4814 O   0  0  0  0  0  0  0  0  0  0  0  0
   -9.6857   -0.1751    4.6671 C   0  0  0  0  0  0  0  0  0  0  0  0
   -8.6526   -2.2662    3.9911 C   0  0  0  0  0  0  0  0  0  0  0  0
   -8.6057    0.5308    4.1238 C   0  0  0  0  0  0  0  0  0  0  0  0
   -7.5803   -1.5491    3.4524 C   0  0  0  0  0  0  0  0  0  0  0  0
  2  1  1  0  0  0  0
  3  1  1  0  0  0  0
  5  2  1  0  0  0  0
  7  3  1  0  0  0  0
  7  5  1  0  0  0  0
  8  3  1  0  0  0  0
  9  6  1  0  0  0  0
 10  6  2  0  0  0  0
 11  9  1  0  0  0  0
 12  8  2  3  0  0  0
 12 11  1  0  0  0  0
 13  4  1  0  0  0  0
 14 10  1  0  0  0  0
 14 11  2  0  0  0  0
 15  4  1  0  0  0  0
 16  6  1  0  0  0  0
 17  4  2  0  0  0  0
 18  1  2  0  0  0  0
 19  5  2  0  0  0  0
 20 13  1  0  0  0  0
 21 13  2  0  0  0  0
 22 16  1  0  0  0  0
 22 20  2  0  0  0  0
 23 16  2  0  0  0  0
 23 21  1  0  0  0  0
M  CHG  2   4   1  15  -1
M  END
