250
 OpenBabel10141417493D

 17 18  0  0  0  0  0  0  0  0999 V2000
    1.3399    0.6138    0.0746 S   0  0  0  0  0  0  0  0  0  0  0  0
    1.0445   -0.0528   -1.1802 O   0  0  0  0  0  0  0  0  0  0  0  0
    0.7527    0.1464    1.3179 O   0  0  0  0  0  0  0  0  0  0  0  0
   -0.1310    6.3583   -0.6099 N   0  0  0  0  0  0  0  0  0  0  0  0
    7.2595    0.6074    0.8459 N   0  0  0  0  0  0  0  0  0  0  0  0
    0.8724    2.3140   -0.1463 C   0  0  0  0  0  0  0  0  0  0  0  0
    3.1012    0.5776    0.3144 C   0  0  0  0  0  0  0  0  0  0  0  0
   -0.0878    2.8878    0.6877 C   0  0  0  0  0  0  0  0  0  0  0  0
    3.9238   -0.0292   -0.6356 C   0  0  0  0  0  0  0  0  0  0  0  0
    1.4886    3.0688   -1.1462 C   0  0  0  0  0  0  0  0  0  0  0  0
    3.6475    1.1724    1.4532 C   0  0  0  0  0  0  0  0  0  0  0  0
   -0.4382    4.2285    0.5077 C   0  0  0  0  0  0  0  0  0  0  0  0
    5.3068   -0.0379   -0.4384 C   0  0  0  0  0  0  0  0  0  0  0  0
    1.1291    4.4088   -1.3124 C   0  0  0  0  0  0  0  0  0  0  0  0
    5.0327    1.1555    1.6363 C   0  0  0  0  0  0  0  0  0  0  0  0
    0.1288    4.9859   -0.5227 C   0  0  0  0  0  0  0  0  0  0  0  0
    5.8690    0.5079    0.7204 C   0  0  0  0  0  0  0  0  0  0  0  0
  1  2  2  0  0  0  0
  1  3  2  0  0  0  0
  1  6  1  0  0  0  0
  1  7  1  0  0  0  0
  4 16  1  0  0  0  0
  5 17  1  0  0  0  0
  6  8  2  0  0  0  0
  6 10  1  0  0  0  0
  7  9  2  0  0  0  0
  7 11  1  0  0  0  0
  8 12  1  0  0  0  0
  9 13  1  0  0  0  0
 10 14  2  0  0  0  0
 11 15  2  0  0  0  0
 12 16  2  0  0  0  0
 13 17  2  0  0  0  0
 14 16  1  0  0  0  0
 15 17  1  0  0  0  0
M  END
