496
 OpenBabel10141417483D

 32 36  0  0  1  0  0  0  0  0999 V2000
    3.4394   -2.6623    5.2038 O   0  0  0  0  0  0  0  0  0  0  0  0
    3.8043  -11.0949    4.9598 O   0  0  0  0  0  0  0  0  0  0  0  0
    1.7854   -4.1385    1.9381 N   0  0  0  0  0  0  0  0  0  0  0  0
    1.7040   -1.2919    5.2940 N   0  0  0  0  0  0  0  0  0  0  0  0
    2.5425   -1.8328    2.1585 C   0  0  2  0  0  0  0  0  0  0  0  0
    3.2851   -1.0263    3.3248 C   0  0  0  0  0  0  0  0  0  0  0  0
    1.0113   -1.9390    2.2121 C   0  0  0  0  0  0  0  0  0  0  0  0
    2.9919   -3.3013    2.0139 C   0  0  0  0  0  0  0  0  0  0  0  0
    0.7008   -3.3767    2.5552 C   0  0  0  0  0  0  0  0  0  0  0  0
    1.9715   -5.4310    2.6332 C   0  0  0  0  0  0  0  0  0  0  0  0
    2.8797    0.4995    3.3394 C   0  0  0  0  0  0  0  0  0  0  0  0
    4.8573   -1.1467    3.1130 C   0  0  0  0  0  0  0  0  0  0  0  0
    2.8573   -1.7177    4.6870 C   0  0  0  0  0  0  0  0  0  0  0  0
    3.1004   -6.3015    2.0467 C   0  0  0  0  0  0  0  0  0  0  0  0
    1.8975    1.0457    2.4864 C   0  0  0  0  0  0  0  0  0  0  0  0
    5.7604   -1.1801    4.1986 C   0  0  0  0  0  0  0  0  0  0  0  0
    3.4840    1.4005    4.2398 C   0  0  0  0  0  0  0  0  0  0  0  0
    5.4305   -1.2500    1.8268 C   0  0  0  0  0  0  0  0  0  0  0  0
    3.2757   -7.6012    2.8054 C   0  0  0  0  0  0  0  0  0  0  0  0
    1.5774    2.4075    2.4817 C   0  0  0  0  0  0  0  0  0  0  0  0
    7.1395   -1.3634    4.0108 C   0  0  0  0  0  0  0  0  0  0  0  0
    3.1934    2.7742    4.2092 C   0  0  0  0  0  0  0  0  0  0  0  0
    6.8087   -1.4308    1.6390 C   0  0  0  0  0  0  0  0  0  0  0  0
    4.1359   -7.6611    3.9162 C   0  0  0  0  0  0  0  0  0  0  0  0
    2.5701   -8.7580    2.4101 C   0  0  0  0  0  0  0  0  0  0  0  0
    2.2523    3.2799    3.3187 C   0  0  0  0  0  0  0  0  0  0  0  0
    7.6637   -1.4944    2.7309 C   0  0  0  0  0  0  0  0  0  0  0  0
    4.2588   -8.8603    4.6001 C   0  0  0  0  0  0  0  0  0  0  0  0
    3.5590   -9.9839    4.1970 C   0  0  0  0  0  0  0  0  0  0  0  0
    5.1209   -9.2052    5.7511 C   0  0  0  0  0  0  0  0  0  0  0  0
    2.7140   -9.9619    3.1076 C   0  0  0  0  0  0  0  0  0  0  0  0
    4.5579  -10.5883    6.0863 C   0  0  0  0  0  0  0  0  0  0  0  0
  1 13  2  0  0  0  0
  2 29  1  0  0  0  0
  2 32  1  0  0  0  0
  3  8  1  0  0  0  0
  3  9  1  0  0  0  0
  3 10  1  0  0  0  0
  4 13  1  0  0  0  0
  5  7  1  0  0  0  0
  5  8  1  0  0  0  0
  5  6  1  1  0  0  0
  6 11  1  0  0  0  0
  6 12  1  0  0  0  0
  6 13  1  0  0  0  0
  7  9  1  0  0  0  0
 10 14  1  0  0  0  0
 11 15  2  0  0  0  0
 11 17  1  0  0  0  0
 12 16  2  0  0  0  0
 12 18  1  0  0  0  0
 14 19  1  0  0  0  0
 15 20  1  0  0  0  0
 16 21  1  0  0  0  0
 17 22  2  0  0  0  0
 18 23  2  0  0  0  0
 19 24  2  0  0  0  0
 19 25  1  0  0  0  0
 20 26  2  0  0  0  0
 21 27  2  0  0  0  0
 22 26  1  0  0  0  0
 23 27  1  0  0  0  0
 24 28  1  0  0  0  0
 25 31  2  0  0  0  0
 28 29  2  0  0  0  0
 28 30  1  0  0  0  0
 29 31  1  0  0  0  0
 30 32  1  0  0  0  0
M  END
