
 OpenBabel10141417523D

 28 31  0  0  0  0  0  0  0  0999 V2000
   -1.2581   -0.2466    0.0382 N   0  0  0  0  0  0  0  0  0  0  0  0
    0.0949   -0.0618   -0.0563 C   0  0  0  0  0  0  0  0  0  0  0  0
    0.4350    1.2272   -0.1920 N   0  0  0  0  0  0  0  0  0  0  0  0
   -0.7461    1.8881   -0.0177 N   0  0  0  0  0  0  0  0  0  0  0  0
   -1.7924    0.9649   -0.0158 C   0  0  0  0  0  0  0  0  0  0  0  0
   -0.6862    3.2915    0.2474 C   0  0  0  0  0  0  0  0  0  0  0  0
    0.4422    4.0107   -0.1886 C   0  0  0  0  0  0  0  0  0  0  0  0
    0.5646    5.3804    0.0679 C   0  0  0  0  0  0  0  0  0  0  0  0
   -0.4339    6.0495    0.7775 C   0  0  0  0  0  0  0  0  0  0  0  0
   -1.5685    5.3416    1.2039 C   0  0  0  0  0  0  0  0  0  0  0  0
   -1.6829    3.9649    0.9625 C   0  0  0  0  0  0  0  0  0  0  0  0
   -0.3572    7.5036    1.0738 C   0  0  0  0  0  0  0  0  0  0  0  0
   -1.3421    8.2052    1.1898 O   0  0  0  0  0  0  0  0  0  0  0  0
    0.9029    7.9666    1.2447 O   0  0  0  0  0  0  0  0  0  0  0  0
    1.0849   -1.1502   -0.0005 C   0  0  0  0  0  0  0  0  0  0  0  0
    2.4591   -0.8311   -0.0271 C   0  0  0  0  0  0  0  0  0  0  0  0
    3.4449   -1.8238    0.0251 C   0  0  0  0  0  0  0  0  0  0  0  0
    3.0781   -3.1620    0.1063 C   0  0  0  0  0  0  0  0  0  0  0  0
    1.7284   -3.5060    0.1426 C   0  0  0  0  0  0  0  0  0  0  0  0
    0.7413   -2.5099    0.0932 C   0  0  0  0  0  0  0  0  0  0  0  0
   -0.5680   -2.9051    0.1426 O   0  0  0  0  0  0  0  0  0  0  0  0
   -3.2490    1.1950   -0.0433 C   0  0  0  0  0  0  0  0  0  0  0  0
   -4.0758    0.2553    0.6017 C   0  0  0  0  0  0  0  0  0  0  0  0
   -5.4640    0.4159    0.6529 C   0  0  0  0  0  0  0  0  0  0  0  0
   -6.0551    1.5301    0.0669 C   0  0  0  0  0  0  0  0  0  0  0  0
   -5.2651    2.4509   -0.6186 C   0  0  0  0  0  0  0  0  0  0  0  0
   -3.8803    2.2602   -0.7032 C   0  0  0  0  0  0  0  0  0  0  0  0
   -3.1433    3.1296   -1.4601 O   0  0  0  0  0  0  0  0  0  0  0  0
  1  2  1  0  0  0  0
  1  5  2  0  0  0  0
  2  3  2  0  0  0  0
  2 15  1  0  0  0  0
  3  4  1  0  0  0  0
  4  5  1  0  0  0  0
  4  6  1  0  0  0  0
  5 22  1  0  0  0  0
  6  7  2  0  0  0  0
  6 11  1  0  0  0  0
  7  8  1  0  0  0  0
  8  9  2  0  0  0  0
  9 10  1  0  0  0  0
  9 12  1  0  0  0  0
 10 11  2  0  0  0  0
 12 13  2  0  0  0  0
 12 14  1  0  0  0  0
 15 16  2  0  0  0  0
 15 20  1  0  0  0  0
 16 17  1  0  0  0  0
 17 18  2  0  0  0  0
 18 19  1  0  0  0  0
 19 20  2  0  0  0  0
 20 21  1  0  0  0  0
 22 23  2  0  0  0  0
 22 27  1  0  0  0  0
 23 24  1  0  0  0  0
 24 25  2  0  0  0  0
 25 26  1  0  0  0  0
 26 27  2  0  0  0  0
 27 28  1  0  0  0  0
M  END
