44151801
 OpenBabel10141417543D

117124  0  0  1  0  0  0  0  0999 V2000
   32.7317   11.2295   11.9085 Cl  0  0  0  0  0  0  0  0  0  0  0  0
   35.0182   -0.0866   10.7942 O   0  0  0  0  0  0  0  0  0  0  0  0
   30.4956    0.1418   13.5020 O   0  0  0  0  0  0  0  0  0  0  0  0
   30.8209    3.6962    7.3150 O   0  0  0  0  0  0  0  0  0  0  0  0
   33.0233    0.0905    8.3258 O   0  0  0  0  0  0  0  0  0  0  0  0
   29.4384    8.0379    8.0617 O   0  0  0  0  0  0  0  0  0  0  0  0
   26.4995    9.0334   12.3052 O   0  0  0  0  0  0  0  0  0  0  0  0
   28.4467   12.7337   12.4274 O   0  0  0  0  0  0  0  0  0  0  0  0
   29.7224   13.8857   14.3457 O   0  0  0  0  0  0  0  0  0  0  0  0
   25.6809   11.2824   16.0101 O   0  0  0  0  0  0  0  0  0  0  0  0
   30.0434    9.2768   18.6757 O   0  0  0  0  0  0  0  0  0  0  0  0
   30.4062   -0.0975    7.8412 O   0  0  0  0  0  0  0  0  0  0  0  0
   30.9902   12.7773   22.4452 O   0  0  0  0  0  0  0  0  0  0  0  0
   28.3594   18.6657   10.3144 O   0  0  0  0  0  0  0  0  0  0  0  0
   27.0976   22.0812   12.3069 O   0  0  0  0  0  0  0  0  0  0  0  0
   31.1737   15.5772   18.1240 O   0  0  0  0  0  0  0  0  0  0  0  0
   28.8091   22.9256    8.3547 O   0  0  0  0  0  0  0  0  0  0  0  0
   33.6863    0.7559   12.3881 N   0  0  0  0  0  0  0  0  0  0  0  0
   32.3637    2.5516    8.9013 N   0  0  0  0  0  0  0  0  0  0  0  0
   30.7683   -0.4030   11.4521 N   0  0  0  0  0  0  0  0  0  0  0  0
   30.0519    6.1727    9.3542 N   0  0  0  0  0  0  0  0  0  0  0  0
   36.1302    4.9124   12.7679 N   0  0  0  0  0  0  0  0  0  0  0  0
   32.2058   -1.9412    8.7874 N   0  0  0  0  0  0  0  0  0  0  0  0
   27.1437    9.0512   10.0800 N   0  0  0  0  0  0  0  0  0  0  0  0
   26.4247   11.7462   12.7038 N   0  0  0  0  0  0  0  0  0  0  0  0
   27.7773   12.0698   15.6539 N   0  0  0  0  0  0  0  0  0  0  0  0
   30.2516    2.1074    9.4915 N   0  0  0  0  0  0  0  0  0  0  0  0
   28.7423   10.9520   17.8693 N   0  0  0  0  0  0  0  0  0  0  0  0
   26.6825   17.6772    9.0702 N   0  0  0  0  0  0  0  0  0  0  0  0
   31.0416   11.9246   20.4413 N   0  0  0  0  0  0  0  0  0  0  0  0
   32.1892   14.7870   20.0224 N   0  0  0  0  0  0  0  0  0  0  0  0
   31.0902    1.5967    7.0150 N   0  0  0  0  0  0  0  0  0  0  0  0
   27.6047   21.0257    8.4810 N   0  0  0  0  0  0  0  0  0  0  0  0
   28.1249    5.1210   15.7503 N   0  0  0  0  0  0  0  0  0  0  0  0
   28.3074   22.0931   10.3994 N   0  0  0  0  0  0  0  0  0  0  0  0
   32.3335    1.3164   12.5693 C   0  0  3  0  0  0  0  0  0  0  0  0
   32.2205    2.4253   13.7152 C   0  0  0  0  0  0  0  0  0  0  0  0
   33.5963    2.1999   14.4334 C   0  0  0  0  0  0  0  0  0  0  0  0
   34.6147    1.4116   13.3953 C   0  0  0  0  0  0  0  0  0  0  0  0
   34.1252    0.6216   11.0248 C   0  0  0  0  0  0  0  0  0  0  0  0
   33.6876    1.9143    9.9304 C   0  0  2  0  0  0  0  0  0  0  0  0
   31.2377    0.2357   12.5073 C   0  0  0  0  0  0  0  0  0  0  0  0
   34.4009    3.0010   10.7759 C   0  0  0  0  0  0  0  0  0  0  0  0
   33.5231    3.6654   11.7839 C   0  0  0  0  0  0  0  0  0  0  0  0
   33.7198    4.6784   12.9180 C   0  0  0  0  0  0  0  0  0  0  0  0
   31.4157    5.3649    8.8330 C   0  0  2  0  0  0  0  0  0  0  0  0
   31.5465    3.8071    8.3282 C   0  0  0  0  0  0  0  0  0  0  0  0
   30.8840   -0.1627   10.0607 C   0  0  2  0  0  0  0  0  0  0  0  0
   32.6279    5.6466    9.6480 C   0  0  0  0  0  0  0  0  0  0  0  0
   35.0710    4.5286   13.6273 C   0  0  0  0  0  0  0  0  0  0  0  0
   34.1216    5.3269    8.9535 C   0  0  0  0  0  0  0  0  0  0  0  0
   29.0565    0.0629    9.5058 C   0  0  0  0  0  0  0  0  0  0  0  0
   32.3203   -0.5966    8.9515 C   0  0  0  0  0  0  0  0  0  0  0  0
   34.4178    3.9563    8.2740 C   0  0  0  0  0  0  0  0  0  0  0  0
   35.2731    6.0061    8.3011 C   0  0  0  0  0  0  0  0  0  0  0  0
   35.7742    6.2059   12.2432 C   0  0  0  0  0  0  0  0  0  0  0  0
   29.2076    7.3072    9.0306 C   0  0  0  0  0  0  0  0  0  0  0  0
   27.6933    7.5827    9.8816 C   0  0  1  0  0  0  0  0  0  0  0  0
   27.6225    6.7654   11.1898 C   0  0  0  0  0  0  0  0  0  0  0  0
   35.4939    7.1744   13.3838 C   0  0  0  0  0  0  0  0  0  0  0  0
   36.9034    6.5699   11.3419 C   0  0  0  0  0  0  0  0  0  0  0  0
   27.8441    5.2653   11.0417 C   0  0  0  0  0  0  0  0  0  0  0  0
   26.6811    9.6693   11.2616 C   0  0  0  0  0  0  0  0  0  0  0  0
   26.3044   11.2426   11.2731 C   0  0  2  0  0  0  0  0  0  0  0  0
   27.0878   12.0236   10.1433 C   0  0  0  0  0  0  0  0  0  0  0  0
   27.6322    4.6250    9.7858 C   0  0  0  0  0  0  0  0  0  0  0  0
   28.5087    4.5542   12.0381 C   0  0  0  0  0  0  0  0  0  0  0  0
   27.1295   13.5453    9.9156 C   0  0  0  0  0  0  0  0  0  0  0  0
   28.3507    3.5145    9.3976 C   0  0  0  0  0  0  0  0  0  0  0  0
   29.2209    3.3835   11.6556 C   0  0  0  0  0  0  0  0  0  0  0  0
   29.2328    2.9406   10.2269 C   0  0  0  0  0  0  0  0  0  0  0  0
   27.5003   12.4758   13.1752 C   0  0  0  0  0  0  0  0  0  0  0  0
   27.4475   13.0749   14.6290 C   0  0  2  0  0  0  0  0  0  0  0  0
   26.8719   14.5036   10.8949 C   0  0  0  0  0  0  0  0  0  0  0  0
   27.6235   14.0851    8.7135 C   0  0  0  0  0  0  0  0  0  0  0  0
   28.4461   14.2461   14.7740 C   0  0  0  0  0  0  0  0  0  0  0  0
   27.5244   10.1990   17.3085 C   0  0  1  0  0  0  0  0  0  0  0  0
   26.9339   15.8801   10.6598 C   0  0  0  0  0  0  0  0  0  0  0  0
   27.4305   15.4481    8.3874 C   0  0  0  0  0  0  0  0  0  0  0  0
   26.8723   11.2645   16.3098 C   0  0  0  0  0  0  0  0  0  0  0  0
   27.0148   16.3418    9.3664 C   0  0  0  0  0  0  0  0  0  0  0  0
   27.5759    8.8738   16.4037 C   0  0  0  0  0  0  0  0  0  0  0  0
   31.0262   11.3713   19.0126 C   0  0  1  0  0  0  0  0  0  0  0  0
   29.8567   10.4729   18.5017 C   0  0  0  0  0  0  0  0  0  0  0  0
   31.8405   12.0455   17.9075 C   0  0  0  0  0  0  0  0  0  0  0  0
   30.3636    1.1219    8.0424 C   0  0  0  0  0  0  0  0  0  0  0  0
   30.9601   14.5261   20.7810 C   0  0  1  0  0  0  0  0  0  0  0  0
   28.0111    7.4188   16.6483 C   0  0  0  0  0  0  0  0  0  0  0  0
   30.9895   13.0406   21.2294 C   0  0  0  0  0  0  0  0  0  0  0  0
   30.8673   15.4948   22.0280 C   0  0  0  0  0  0  0  0  0  0  0  0
   31.8606   11.6157   16.4264 C   0  0  0  0  0  0  0  0  0  0  0  0
   27.3481   18.7655    9.6247 C   0  0  0  0  0  0  0  0  0  0  0  0
   26.7420   20.1394    9.2396 C   0  0  1  0  0  0  0  0  0  0  0  0
   30.9264   16.9764   21.6725 C   0  0  0  0  0  0  0  0  0  0  0  0
   29.0481    7.0258   17.4722 C   0  0  0  0  0  0  0  0  0  0  0  0
   27.5397    6.3600   15.8615 C   0  0  0  0  0  0  0  0  0  0  0  0
   26.1922   20.8677   10.4535 C   0  0  0  0  0  0  0  0  0  0  0  0
   32.1532   10.3723   15.8413 C   0  0  0  0  0  0  0  0  0  0  0  0
   31.6474   12.6331   15.5052 C   0  0  0  0  0  0  0  0  0  0  0  0
   29.7639   17.7210   21.4255 C   0  0  0  0  0  0  0  0  0  0  0  0
   32.1659   17.5889   21.4380 C   0  0  0  0  0  0  0  0  0  0  0  0
   29.8369   19.0257   20.8909 C   0  0  0  0  0  0  0  0  0  0  0  0
   31.0957   19.6074   20.6261 C   0  0  0  0  0  0  0  0  0  0  0  0
   29.7339    5.8166   17.3481 C   0  0  0  0  0  0  0  0  0  0  0  0
   27.2546   21.6738   11.1572 C   0  0  0  0  0  0  0  0  0  0  0  0
   32.2490   18.8744   20.8995 C   0  0  0  0  0  0  0  0  0  0  0  0
   32.1932   15.3297   18.7603 C   0  0  0  0  0  0  0  0  0  0  0  0
   32.3850   10.2299   14.4302 C   0  0  0  0  0  0  0  0  0  0  0  0
   31.8800   12.4917   14.1131 C   0  0  0  0  0  0  0  0  0  0  0  0
   28.2982   22.0509    9.0440 C   0  0  0  0  0  0  0  0  0  0  0  0
   29.2451    4.8967   16.4609 C   0  0  0  0  0  0  0  0  0  0  0  0
   32.3293   11.3141   13.5809 C   0  0  0  0  0  0  0  0  0  0  0  0
   28.6866   19.7247   20.5005 C   0  0  0  0  0  0  0  0  0  0  0  0
   31.1818   20.8582   19.9962 C   0  0  0  0  0  0  0  0  0  0  0  0
   33.5675   15.5236   18.1746 C   0  0  0  0  0  0  0  0  0  0  0  0
   28.7809   20.9780   19.8886 C   0  0  0  0  0  0  0  0  0  0  0  0
   30.0265   21.5397   19.6249 C   0  0  0  0  0  0  0  0  0  0  0  0
  1112  1  0  0  0  0
  2 40  2  0  0  0  0
  3 42  2  0  0  0  0
  4 47  2  0  0  0  0
  5 53  2  0  0  0  0
  6 57  2  0  0  0  0
  7 63  2  0  0  0  0
  8 72  2  0  0  0  0
  9 76  1  0  0  0  0
 10 80  2  0  0  0  0
 11 84  2  0  0  0  0
 12 86  2  0  0  0  0
 13 89  2  0  0  0  0
 14 92  2  0  0  0  0
 15105  2  0  0  0  0
 16107  2  0  0  0  0
 17110  2  0  0  0  0
 18 36  1  0  0  0  0
 18 39  1  0  0  0  0
 18 40  1  0  0  0  0
 19 47  1  0  0  0  0
 20 42  1  0  0  0  0
 21 57  1  0  0  0  0
 22 50  1  0  0  0  0
 22 56  1  0  0  0  0
 23 53  1  0  0  0  0
 24 63  1  0  0  0  0
 25 72  1  0  0  0  0
 26 80  1  0  0  0  0
 27 71  1  0  0  0  0
 27 86  1  0  0  0  0
 28 84  1  0  0  0  0
 29 81  1  0  0  0  0
 29 92  1  0  0  0  0
 30 89  1  0  0  0  0
 31107  1  0  0  0  0
 32 86  1  0  0  0  0
 33 93  1  0  0  0  0
 33110  1  0  0  0  0
 34 96  1  0  0  0  0
 34111  2  0  0  0  0
 35105  1  0  0  0  0
 35110  1  0  0  0  0
 36 37  1  0  0  0  0
 36 42  1  0  0  0  0
 37 38  1  0  0  0  0
 38 39  1  0  0  0  0
 41 43  1  1  0  0  0
 41 40  1  0  0  0  0
 41 19  1  0  0  0  0
 43 44  1  0  0  0  0
 44 45  1  0  0  0  0
 45 50  1  0  0  0  0
 46 49  1  1  0  0  0
 46 47  1  0  0  0  0
 46 21  1  0  0  0  0
 48 53  1  6  0  0  0
 48 52  1  0  0  0  0
 48 20  1  0  0  0  0
 49 51  1  0  0  0  0
 51 54  1  0  0  0  0
 51 55  1  0  0  0  0
 56 60  1  0  0  0  0
 56 61  1  0  0  0  0
 57 58  1  0  0  0  0
 58 24  1  1  0  0  0
 58 59  1  0  0  0  0
 59 62  1  0  0  0  0
 62 66  2  0  0  0  0
 62 67  1  0  0  0  0
 64 65  1  6  0  0  0
 64 63  1  0  0  0  0
 64 25  1  0  0  0  0
 65 68  1  0  0  0  0
 66 69  1  0  0  0  0
 67 70  2  0  0  0  0
 68 74  2  0  0  0  0
 68 75  1  0  0  0  0
 69 71  2  0  0  0  0
 70 71  1  0  0  0  0
 73 76  1  6  0  0  0
 73 72  1  0  0  0  0
 73 26  1  0  0  0  0
 74 78  1  0  0  0  0
 75 79  2  0  0  0  0
 77 28  1  6  0  0  0
 77 80  1  0  0  0  0
 77 82  1  0  0  0  0
 78 81  2  0  0  0  0
 79 81  1  0  0  0  0
 82 88  1  0  0  0  0
 83 30  1  1  0  0  0
 83 84  1  0  0  0  0
 83 85  1  0  0  0  0
 85 91  1  0  0  0  0
 87 90  1  1  0  0  0
 87 89  1  0  0  0  0
 87 31  1  0  0  0  0
 88 95  1  0  0  0  0
 88 96  2  0  0  0  0
 90 94  1  0  0  0  0
 91 98  2  0  0  0  0
 91 99  1  0  0  0  0
 93 92  1  1  0  0  0
 93 97  1  0  0  0  0
 94100  2  0  0  0  0
 94101  1  0  0  0  0
 95104  2  0  0  0  0
 97105  1  0  0  0  0
 98108  1  0  0  0  0
 99109  2  0  0  0  0
100102  1  0  0  0  0
101106  2  0  0  0  0
102103  1  0  0  0  0
102113  2  0  0  0  0
103106  1  0  0  0  0
103114  2  0  0  0  0
104111  1  0  0  0  0
107115  1  0  0  0  0
108112  2  0  0  0  0
109112  1  0  0  0  0
113116  1  0  0  0  0
114117  1  0  0  0  0
116117  2  0  0  0  0
M  END
