1511
 OpenBabel10141418073D

 20 22  0  0  0  0  0  0  0  0999 V2000
    0.9739    0.3519   -0.6392 Cl  0  0  0  0  0  0  0  0  0  0  0  0
    4.5453    1.6891    3.2072 Cl  0  0  0  0  0  0  0  0  0  0  0  0
    8.9999    0.3636   -0.0871 O   0  0  0  0  0  0  0  0  0  0  0  0
    6.8227   -0.1417    0.1221 N   0  0  0  0  0  0  0  0  0  0  0  0
    6.7228    2.8932   -0.0812 N   0  0  0  0  0  0  0  0  0  0  0  0
    4.8136    1.3168   -0.0240 C   0  0  0  0  0  0  0  0  0  0  0  0
    5.5439    2.5717    0.3297 C   0  0  0  0  0  0  0  0  0  0  0  0
    5.4414    0.0595   -0.0095 C   0  0  0  0  0  0  0  0  0  0  0  0
    4.8649    3.5650    1.2158 C   0  0  0  0  0  0  0  0  0  0  0  0
    3.4271    1.3998   -0.2418 C   0  0  0  0  0  0  0  0  0  0  0  0
    7.4470    1.9905   -0.9668 C   0  0  0  0  0  0  0  0  0  0  0  0
    4.6565   -1.0983   -0.1127 C   0  0  0  0  0  0  0  0  0  0  0  0
    7.8287    0.7119   -0.2450 C   0  0  0  0  0  0  0  0  0  0  0  0
    2.6713    0.2393   -0.3874 C   0  0  0  0  0  0  0  0  0  0  0  0
    3.2767   -1.0097   -0.3077 C   0  0  0  0  0  0  0  0  0  0  0  0
    4.3681    3.2492    2.4873 C   0  0  0  0  0  0  0  0  0  0  0  0
    4.7502    4.8766    0.7294 C   0  0  0  0  0  0  0  0  0  0  0  0
    3.7285    4.2370    3.2443 C   0  0  0  0  0  0  0  0  0  0  0  0
    4.1125    5.8560    1.4912 C   0  0  0  0  0  0  0  0  0  0  0  0
    3.5964    5.5347    2.7451 C   0  0  0  0  0  0  0  0  0  0  0  0
  1 14  1  0  0  0  0
  2 16  1  0  0  0  0
  3 13  2  0  0  0  0
  4  8  1  0  0  0  0
  4 13  1  0  0  0  0
  5  7  2  0  0  0  0
  5 11  1  0  0  0  0
  6  7  1  0  0  0  0
  6  8  2  0  0  0  0
  6 10  1  0  0  0  0
  7  9  1  0  0  0  0
  8 12  1  0  0  0  0
  9 16  1  0  0  0  0
  9 17  2  0  0  0  0
 10 14  2  0  0  0  0
 11 13  1  0  0  0  0
 12 15  2  0  0  0  0
 14 15  1  0  0  0  0
 16 18  2  0  0  0  0
 17 19  1  0  0  0  0
 18 20  1  0  0  0  0
 19 20  2  0  0  0  0
M  END
