1151
 OpenBabel10141417503D

 20 22  0  0  0  0  0  0  0  0999 V2000
   -0.2522    0.3666    2.4317 N   0  0  0  0  0  0  0  0  0  0  0  0
   -1.8644   -1.5838   -1.8793 N   0  0  0  0  0  0  0  0  0  0  0  0
   -0.6622    3.1524    1.9011 C   0  0  0  0  0  0  0  0  0  0  0  0
    0.3834    3.3347    2.9959 C   0  0  0  0  0  0  0  0  0  0  0  0
   -1.5384    0.9059    2.5855 C   0  0  0  0  0  0  0  0  0  0  0  0
    0.8899    0.7853    3.1551 C   0  0  0  0  0  0  0  0  0  0  0  0
    0.0158   -0.5353    1.2786 C   0  0  0  0  0  0  0  0  0  0  0  0
   -1.7896    2.2625    2.3459 C   0  0  0  0  0  0  0  0  0  0  0  0
    1.1982    2.1349    3.4342 C   0  0  0  0  0  0  0  0  0  0  0  0
   -1.1190   -0.6514    0.2469 C   0  0  0  0  0  0  0  0  0  0  0  0
   -2.6012    0.0763    2.9742 C   0  0  0  0  0  0  0  0  0  0  0  0
    1.7321   -0.2081    3.7035 C   0  0  0  0  0  0  0  0  0  0  0  0
   -3.0918    2.7693    2.4895 C   0  0  0  0  0  0  0  0  0  0  0  0
    2.3405    2.4333    4.2133 C   0  0  0  0  0  0  0  0  0  0  0  0
   -0.7266   -1.5083   -0.9585 C   0  0  0  0  0  0  0  0  0  0  0  0
   -3.8972    0.5791    3.0996 C   0  0  0  0  0  0  0  0  0  0  0  0
    2.8438    0.1050    4.4868 C   0  0  0  0  0  0  0  0  0  0  0  0
   -4.1394    1.9259    2.8592 C   0  0  0  0  0  0  0  0  0  0  0  0
    3.1568    1.4337    4.7337 C   0  0  0  0  0  0  0  0  0  0  0  0
   -1.5406   -2.3414   -3.0783 C   0  0  0  0  0  0  0  0  0  0  0  0
  1  5  1  0  0  0  0
  1  6  1  0  0  0  0
  1  7  1  0  0  0  0
  2 15  1  0  0  0  0
  2 20  1  0  0  0  0
  3  4  1  0  0  0  0
  3  8  1  0  0  0  0
  4  9  1  0  0  0  0
  5  8  1  0  0  0  0
  5 11  2  0  0  0  0
  6  9  1  0  0  0  0
  6 12  2  0  0  0  0
  7 10  1  0  0  0  0
  8 13  2  0  0  0  0
  9 14  2  0  0  0  0
 10 15  1  0  0  0  0
 11 16  1  0  0  0  0
 12 17  1  0  0  0  0
 13 18  1  0  0  0  0
 14 19  1  0  0  0  0
 16 18  2  0  0  0  0
 17 19  2  0  0  0  0
M  END
