
 OpenBabel10141417493D

 66 74  0  0  1  0  0  0  0  0999 V2000
  -13.7961    2.6293   -0.4928 C   0  0  1  0  0  0  0  0  0  0  0  0
  -14.3929    3.1773   -1.7677 C   0  0  0  0  0  0  0  0  0  0  0  0
  -15.8207    2.7399   -1.9143 C   0  0  1  0  0  0  0  0  0  0  0  0
  -16.0741    1.2259   -1.7525 C   0  0  1  0  0  0  0  0  0  0  0  0
  -15.2150    0.6117   -0.6201 C   0  0  2  0  0  0  0  0  0  0  0  0
  -13.9610    1.2357   -0.3991 O   0  0  0  0  0  0  0  0  0  0  0  0
  -16.6094    3.5026   -1.0041 O   0  0  0  0  0  0  0  0  0  0  0  0
  -17.4799    0.9414   -1.5092 O   0  0  0  0  0  0  0  0  0  0  0  0
  -14.7760   -0.8198   -0.9934 C   0  0  0  0  0  0  0  0  0  0  0  0
   -9.6177    1.3530    0.4093 C   0  0  2  0  0  0  0  0  0  0  0  0
  -10.1857    0.4875   -0.5400 O   0  0  0  0  0  0  0  0  0  0  0  0
  -11.4021    0.8266   -1.1664 C   0  0  1  0  0  0  0  0  0  0  0  0
  -11.5551    2.3347   -1.4296 C   0  0  2  0  0  0  0  0  0  0  0  0
  -10.1504    2.9682   -1.4210 C   0  0  2  0  0  0  0  0  0  0  0  0
   -9.5230    2.8115   -0.0477 C   0  0  0  0  0  0  0  0  0  0  0  0
   -6.0106   -6.4936   -5.4740 C   0  0  2  0  0  0  0  0  0  0  0  0
   -5.4575   -5.3808   -4.5203 C   0  0  1  0  0  0  0  0  0  0  0  0
   -6.3416   -7.7805   -4.6602 C   0  0  1  0  0  0  0  0  0  0  0  0
   -4.5865   -5.9919   -3.3501 C   0  0  1  0  0  0  0  0  0  0  0  0
   -4.7057   -4.2427   -5.2041 C   0  0  0  0  0  0  0  0  0  0  0  0
   -4.9739   -8.3826   -4.2253 C   0  0  1  0  0  0  0  0  0  0  0  0
   -7.3192   -7.4486   -3.4801 C   0  0  0  0  0  0  0  0  0  0  0  0
   -3.6402   -4.9854   -2.5986 C   0  0  2  0  0  0  0  0  0  0  0  0
   -3.9316   -7.3207   -3.7790 C   0  0  0  0  0  0  0  0  0  0  0  0
   -4.3480   -3.1129   -4.2296 C   0  0  0  0  0  0  0  0  0  0  0  0
   -4.1438   -3.5382   -2.7565 C   0  0  2  0  0  0  0  0  0  0  0  0
   -3.5899   -5.3299   -1.0706 C   0  0  0  0  0  0  0  0  0  0  0  0
   -2.1836   -5.0394   -3.1148 C   0  0  0  0  0  0  0  0  0  0  0  0
   -5.4044   -3.2439   -1.9446 C   0  0  0  0  0  0  0  0  0  0  0  0
   -4.8943   -5.0691   -0.3039 C   0  0  0  0  0  0  0  0  0  0  0  0
   -5.3539   -3.6204   -0.4613 C   0  0  2  0  0  0  0  0  0  0  0  0
   -5.1419   -9.3649   -3.2065 O   0  0  0  0  0  0  0  0  0  0  0  0
   -7.3264   -6.2239   -6.2114 C   0  0  0  0  0  0  0  0  0  0  0  0
   -7.9168   -7.6256   -6.5173 C   0  0  0  0  0  0  0  0  0  0  0  0
   -7.0943   -8.6754   -5.7150 C   0  0  2  0  0  0  0  0  0  0  0  0
   -7.9209   -9.8675   -5.2551 C   0  0  0  0  0  0  0  0  0  0  0  0
   -8.0843  -10.3730   -4.0079 C   0  0  0  0  0  0  0  0  0  0  0  0
   -9.0095  -11.5461   -4.0611 C   0  0  0  0  0  0  0  0  0  0  0  0
   -9.2847  -11.7482   -5.3405 O   0  0  0  0  0  0  0  0  0  0  0  0
   -8.6384  -10.7426   -6.2015 C   0  0  0  0  0  0  0  0  0  0  0  0
   -9.4190  -12.1435   -3.1182 O   0  0  0  0  0  0  0  0  0  0  0  0
   -6.6277   -3.4829    0.1992 O   0  0  0  0  0  0  0  0  0  0  0  0
   -7.2159   -2.1657    0.1936 C   0  0  1  0  0  0  0  0  0  0  0  0
   -6.3713   -1.1735    1.0040 C   0  0  0  0  0  0  0  0  0  0  0  0
   -6.0965    0.0846    0.1956 C   0  0  1  0  0  0  0  0  0  0  0  0
   -7.4237    0.6053   -0.3826 C   0  0  1  0  0  0  0  0  0  0  0  0
   -7.8600   -0.4530   -1.4308 C   0  0  2  0  0  0  0  0  0  0  0  0
   -7.4451   -1.7833   -1.1548 O   0  0  0  0  0  0  0  0  0  0  0  0
   -5.4382    1.0564    1.0051 O   0  0  0  0  0  0  0  0  0  0  0  0
   -8.3316    0.8079    0.7267 O   0  0  0  0  0  0  0  0  0  0  0  0
   -7.2988   -0.0746   -2.8061 C   0  0  0  0  0  0  0  0  0  0  0  0
  -11.4574    0.0387   -2.4804 C   0  0  0  0  0  0  0  0  0  0  0  0
  -12.3886    2.9534   -0.4214 O   0  0  0  0  0  0  0  0  0  0  0  0
  -10.1978    4.3408   -1.8096 O   0  0  0  0  0  0  0  0  0  0  0  0
  -18.3648    1.2822   -2.5949 C   0  0  2  0  0  0  0  0  0  0  0  0
  -18.2821    2.6791   -2.8685 O   0  0  0  0  0  0  0  0  0  0  0  0
  -19.4775    3.3547   -3.2316 C   0  0  1  0  0  0  0  0  0  0  0  0
  -20.4529    3.3049   -2.0512 C   0  0  2  0  0  0  0  0  0  0  0  0
  -20.6746    1.8558   -1.5710 C   0  0  1  0  0  0  0  0  0  0  0  0
  -19.8079    0.8030   -2.2939 C   0  0  1  0  0  0  0  0  0  0  0  0
  -20.4424    1.8001   -0.1576 O   0  0  0  0  0  0  0  0  0  0  0  0
  -19.0755    4.8005   -3.5834 C   0  0  0  0  0  0  0  0  0  0  0  0
  -20.4329    0.4839   -3.5565 O   0  0  0  0  0  0  0  0  0  0  0  0
  -21.7219    3.8833   -2.3824 O   0  0  0  0  0  0  0  0  0  0  0  0
  -20.1834    5.5845   -4.0068 O   0  0  0  0  0  0  0  0  0  0  0  0
   -5.0338   -6.7898   -6.4833 O   0  0  0  0  0  0  0  0  0  0  0  0
  1  2  1  0  0  0  0
  1  6  1  0  0  0  0
  1 53  1  6  0  0  0
  2  3  1  0  0  0  0
  3  4  1  0  0  0  0
  3  7  1  1  0  0  0
  4  5  1  0  0  0  0
  4  8  1  1  0  0  0
  5  6  1  0  0  0  0
  5  9  1  6  0  0  0
 10 11  1  0  0  0  0
 10 15  1  0  0  0  0
 10 50  1  6  0  0  0
 11 12  1  0  0  0  0
 12 13  1  0  0  0  0
 12 52  1  6  0  0  0
 13 14  1  0  0  0  0
 13 53  1  1  0  0  0
 14 15  1  0  0  0  0
 14 54  1  1  0  0  0
 16 17  1  0  0  0  0
 16 18  1  0  0  0  0
 16 33  1  0  0  0  0
 16 66  1  1  0  0  0
 17 19  1  0  0  0  0
 17 20  1  6  0  0  0
 18 21  1  0  0  0  0
 18 35  1  0  0  0  0
 18 22  1  1  0  0  0
 19 23  1  0  0  0  0
 19 24  1  1  0  0  0
 20 25  1  0  0  0  0
 21 24  1  0  0  0  0
 21 32  1  1  0  0  0
 23 26  1  0  0  0  0
 23 27  1  0  0  0  0
 23 28  1  1  0  0  0
 25 26  1  0  0  0  0
 26 29  1  6  0  0  0
 27 30  1  0  0  0  0
 29 31  1  0  0  0  0
 30 31  1  0  0  0  0
 31 42  1  6  0  0  0
 33 34  1  0  0  0  0
 34 35  1  0  0  0  0
 35 36  1  1  0  0  0
 36 37  2  0  0  0  0
 36 40  1  0  0  0  0
 37 38  1  0  0  0  0
 38 39  1  0  0  0  0
 38 41  2  0  0  0  0
 39 40  1  0  0  0  0
 43 44  1  0  0  0  0
 43 48  1  0  0  0  0
 43 42  1  6  0  0  0
 44 45  1  0  0  0  0
 45 46  1  0  0  0  0
 45 49  1  1  0  0  0
 46 47  1  0  0  0  0
 46 50  1  1  0  0  0
 47 48  1  0  0  0  0
 47 51  1  6  0  0  0
 55  8  1  1  0  0  0
 55 56  1  0  0  0  0
 55 60  1  0  0  0  0
 56 57  1  0  0  0  0
 57 58  1  0  0  0  0
 57 62  1  1  0  0  0
 58 59  1  0  0  0  0
 58 64  1  6  0  0  0
 59 60  1  0  0  0  0
 59 61  1  1  0  0  0
 60 63  1  6  0  0  0
 62 65  1  0  0  0  0
M  END
