1260
 OpenBabel10141417483D

 30 34  0  0  1  0  0  0  0  0999 V2000
   -4.3808    1.4337   11.4754 O   0  0  0  0  0  0  0  0  0  0  0  0
   -2.2666    0.6166   11.0842 O   0  0  0  0  0  0  0  0  0  0  0  0
   -4.9724    3.2437    7.3710 O   0  0  0  0  0  0  0  0  0  0  0  0
   -5.4101   -1.9020   12.0666 O   0  0  0  0  0  0  0  0  0  0  0  0
   -6.0255    0.5246   14.0194 O   0  0  0  0  0  0  0  0  0  0  0  0
   -1.3884    5.7489    5.3962 O   0  0  0  0  0  0  0  0  0  0  0  0
   -4.9291    0.0616    9.4296 C   0  0  1  0  0  0  0  0  0  0  0  0
   -3.7384   -0.6688    8.7074 C   0  0  2  0  0  0  0  0  0  0  0  0
   -2.8869    0.0879    7.6454 C   0  0  1  0  0  0  0  0  0  0  0  0
   -4.5415    0.0979   10.9725 C   0  0  1  0  0  0  0  0  0  0  0  0
   -3.7085    1.1790    6.8889 C   0  0  2  0  0  0  0  0  0  0  0  0
   -3.1452   -0.5104   11.0617 C   0  0  1  0  0  0  0  0  0  0  0  0
   -2.9726   -1.3790    9.8324 C   0  0  0  0  0  0  0  0  0  0  0  0
   -5.3004    1.4448    8.8445 C   0  0  0  0  0  0  0  0  0  0  0  0
   -4.2752    2.1453    7.9542 C   0  0  2  0  0  0  0  0  0  0  0  0
   -2.8642    1.8398    5.7225 C   0  0  1  0  0  0  0  0  0  0  0  0
   -1.5205    0.6316    8.1197 C   0  0  0  0  0  0  0  0  0  0  0  0
   -6.1827   -0.8354    9.1888 C   0  0  0  0  0  0  0  0  0  0  0  0
   -0.7057    1.2418    6.9824 C   0  0  0  0  0  0  0  0  0  0  0  0
   -3.0016    1.6084   11.8011 C   0  0  0  0  0  0  0  0  0  0  0  0
   -5.4778   -0.6749   11.9338 C   0  0  0  0  0  0  0  0  0  0  0  0
   -1.5072    2.2898    6.2622 C   0  0  0  0  0  0  0  0  0  0  0  0
   -2.6431    0.8078    4.5839 C   0  0  0  0  0  0  0  0  0  0  0  0
   -3.5967    2.9845    5.0380 C   0  0  0  0  0  0  0  0  0  0  0  0
   -6.4967    0.1256   12.7444 C   0  0  0  0  0  0  0  0  0  0  0  0
   -2.7681    1.4371   13.3049 C   0  0  0  0  0  0  0  0  0  0  0  0
   -2.5784    3.0128   11.3915 C   0  0  0  0  0  0  0  0  0  0  0  0
   -1.0405    3.5450    6.1509 C   0  0  0  0  0  0  0  0  0  0  0  0
   -3.1306    4.2351    4.9210 C   0  0  0  0  0  0  0  0  0  0  0  0
   -1.8163    4.6103    5.4789 C   0  0  0  0  0  0  0  0  0  0  0  0
  1 10  1  0  0  0  0
  1 20  1  0  0  0  0
  2 20  1  0  0  0  0
  4 21  2  0  0  0  0
  5 25  1  0  0  0  0
  6 30  2  0  0  0  0
  7  8  1  0  0  0  0
  7 10  1  0  0  0  0
  7 14  1  0  0  0  0
  7 18  1  6  0  0  0
  8  9  1  0  0  0  0
  8 13  1  6  0  0  0
  9 17  1  1  0  0  0
 10 12  1  0  0  0  0
 10 21  1  1  0  0  0
 11  9  1  6  0  0  0
 11 15  1  0  0  0  0
 11 16  1  0  0  0  0
 12  2  1  6  0  0  0
 12 13  1  0  0  0  0
 14 15  1  0  0  0  0
 15  3  1  6  0  0  0
 16 22  1  0  0  0  0
 16 24  1  0  0  0  0
 16 23  1  6  0  0  0
 17 19  1  0  0  0  0
 19 22  1  0  0  0  0
 20 26  1  0  0  0  0
 20 27  1  0  0  0  0
 21 25  1  0  0  0  0
 22 28  2  0  0  0  0
 24 29  2  0  0  0  0
 28 30  1  0  0  0  0
 29 30  1  0  0  0  0
M  END
