304
 OpenBabel10141417503D

 23 26  0  0  1  0  0  0  0  0999 V2000
   -1.0968   -2.2309    0.8948 O   0  0  0  0  0  0  0  0  0  0  0  0
   -2.0625   -1.9627    3.1908 C   0  0  1  0  0  0  0  0  0  0  0  0
   -3.3206   -1.1073    3.5647 C   0  0  2  0  0  0  0  0  0  0  0  0
   -3.5966   -0.8050    5.0513 C   0  0  1  0  0  0  0  0  0  0  0  0
   -3.5851   -2.1465    5.8524 C   0  0  1  0  0  0  0  0  0  0  0  0
   -2.2972   -2.0620    1.6345 C   0  0  2  0  0  0  0  0  0  0  0  0
   -3.3024    0.0293    2.5616 C   0  0  0  0  0  0  0  0  0  0  0  0
   -2.1656   -3.2631    4.0267 C   0  0  0  0  0  0  0  0  0  0  0  0
   -2.9079   -0.6763    1.2518 C   0  0  0  0  0  0  0  0  0  0  0  0
   -4.0135   -1.8784    7.3319 C   0  0  2  0  0  0  0  0  0  0  0  0
   -2.7402    0.2800    5.7258 C   0  0  0  0  0  0  0  0  0  0  0  0
   -2.2957   -2.9145    5.5139 C   0  0  0  0  0  0  0  0  0  0  0  0
   -0.6821   -1.2540    3.4561 C   0  0  0  0  0  0  0  0  0  0  0  0
   -3.1667    0.5252    7.1739 C   0  0  0  0  0  0  0  0  0  0  0  0
   -3.2216   -0.7537    7.9719 C   0  0  0  0  0  0  0  0  0  0  0  0
   -4.1255   -3.1659    8.1788 C   0  0  0  0  0  0  0  0  0  0  0  0
    0.5782   -2.1140    3.3203 C   0  0  0  0  0  0  0  0  0  0  0  0
   -3.2028   -3.1616    1.2340 C   0  0  0  0  0  0  0  0  0  0  0  0
   -4.0958   -2.8731    9.6765 C   0  0  0  0  0  0  0  0  0  0  0  0
   -2.6646   -0.8685    9.1900 C   0  0  0  0  0  0  0  0  0  0  0  0
   -1.3198   -3.2434    6.3752 C   0  0  0  0  0  0  0  0  0  0  0  0
   -2.8484   -2.0766   10.0592 C   0  0  0  0  0  0  0  0  0  0  0  0
   -3.8987   -4.0725    0.8778 C   0  0  0  0  0  0  0  0  0  0  0  0
  2  3  1  0  0  0  0
  2  6  1  0  0  0  0
  2  8  1  0  0  0  0
  2 13  1  6  0  0  0
  3  4  1  0  0  0  0
  3  7  1  1  0  0  0
  4  5  1  0  0  0  0
  4 11  1  1  0  0  0
  5 10  1  0  0  0  0
  5 12  1  6  0  0  0
  6  9  1  0  0  0  0
  6 18  1  1  0  0  0
  6  1  1  0  0  0  0
  7  9  1  0  0  0  0
  8 12  1  0  0  0  0
 10 15  1  1  0  0  0
 10 16  1  0  0  0  0
 11 14  1  0  0  0  0
 12 21  2  0  0  0  0
 13 17  1  0  0  0  0
 14 15  1  0  0  0  0
 15 20  2  0  0  0  0
 16 19  1  0  0  0  0
 18 23  3  0  0  0  0
 19 22  1  0  0  0  0
 20 22  1  0  0  0  0
M  END
