
 OpenBabel10141417543D

 19 20  0  0  0  0  0  0  0  0999 V2000
    0.6614    0.4741    0.7907 C   0  0  0  0  0  0  0  0  0  0  0  0
   -0.3456   -0.4826    1.5312 C   0  0  3  0  0  0  0  0  0  0  0  0
    0.1334   -0.8508    2.9495 C   0  0  0  0  0  0  0  0  0  0  0  0
    0.4296    0.1329    3.9033 C   0  0  0  0  0  0  0  0  0  0  0  0
    0.7697   -0.2019    5.2159 C   0  0  0  0  0  0  0  0  0  0  0  0
    0.8482   -1.5359    5.5819 C   0  0  0  0  0  0  0  0  0  0  0  0
    0.6114   -2.5377    4.6441 C   0  0  0  0  0  0  0  0  0  0  0  0
    0.2547   -2.1965    3.3319 C   0  0  0  0  0  0  0  0  0  0  0  0
    1.1588   -1.9051    6.8570 O   0  0  0  0  0  0  0  0  0  0  0  0
   -1.8160    0.1462    1.6019 C   0  0  0  0  0  0  0  0  0  0  0  0
   -2.8472   -0.7442    2.3494 C   0  0  0  0  0  0  0  0  0  0  0  0
   -3.3085   -1.9575    1.5456 C   0  0  0  0  0  0  0  0  0  0  0  0
   -3.8903   -1.5386    0.2004 C   0  0  0  0  0  0  0  0  0  0  0  0
   -2.9053   -0.6809   -0.5861 C   0  0  0  0  0  0  0  0  0  0  0  0
   -2.4367    0.5160    0.2327 C   0  0  0  0  0  0  0  0  0  0  0  0
   -1.7480    1.4053    2.3050 O   0  0  0  0  0  0  0  0  0  0  0  0
    2.0250    0.0084    0.4129 N   0  0  0  0  0  0  0  0  0  0  0  0
    2.7170    1.0950   -0.3035 C   0  0  0  0  0  0  0  0  0  0  0  0
    2.8670   -0.3965    1.5373 C   0  0  0  0  0  0  0  0  0  0  0  0
  1  2  1  0  0  0  0
  1 17  1  0  0  0  0
  2  3  1  0  0  0  0
  2 10  1  0  0  0  0
  3  4  2  0  0  0  0
  3  8  1  0  0  0  0
  4  5  1  0  0  0  0
  5  6  2  0  0  0  0
  6  7  1  0  0  0  0
  6  9  1  0  0  0  0
  7  8  2  0  0  0  0
 10 11  1  0  0  0  0
 10 15  1  0  0  0  0
 10 16  1  0  0  0  0
 11 12  1  0  0  0  0
 12 13  1  0  0  0  0
 13 14  1  0  0  0  0
 14 15  1  0  0  0  0
 17 18  1  0  0  0  0
 17 19  1  0  0  0  0
M  END
