405
 OpenBabel10141417533D

 19 20  0  0  1  0  0  0  0  0999 V2000
   14.6695    1.6174    4.4584 Br  0  0  0  0  0  0  0  0  0  0  0  0
    8.5217   -1.2458   -2.1647 N   0  0  0  0  0  0  0  0  0  0  0  0
   10.9743    0.8696   -1.8609 N   0  0  0  0  0  0  0  0  0  0  0  0
   10.0094    0.6475    0.4317 C   0  0  1  0  0  0  0  0  0  0  0  0
    9.8649   -0.8989    0.1084 C   0  0  0  0  0  0  0  0  0  0  0  0
    8.6820   -1.4569   -0.7287 C   0  0  0  0  0  0  0  0  0  0  0  0
   10.9836    0.9181    1.6170 C   0  0  0  0  0  0  0  0  0  0  0  0
   10.3953    1.4746   -0.8176 C   0  0  0  0  0  0  0  0  0  0  0  0
   11.5543    2.2021    1.7950 C   0  0  0  0  0  0  0  0  0  0  0  0
   11.3861   -0.0634    2.5285 C   0  0  0  0  0  0  0  0  0  0  0  0
   10.0249    2.8178   -0.9204 C   0  0  0  0  0  0  0  0  0  0  0  0
    8.0288    0.0718   -2.5165 C   0  0  0  0  0  0  0  0  0  0  0  0
    9.6619   -1.7167   -2.9442 C   0  0  0  0  0  0  0  0  0  0  0  0
   12.6275    2.4207    2.6705 C   0  0  0  0  0  0  0  0  0  0  0  0
   12.4745    0.1424    3.4059 C   0  0  0  0  0  0  0  0  0  0  0  0
   10.2060    3.4971   -2.1247 C   0  0  0  0  0  0  0  0  0  0  0  0
   13.1123    1.3780    3.4184 C   0  0  0  0  0  0  0  0  0  0  0  0
   10.9957    1.4796   -3.0713 C   0  0  0  0  0  0  0  0  0  0  0  0
   10.6296    2.8172   -3.2346 C   0  0  0  0  0  0  0  0  0  0  0  0
  1 17  1  0  0  0  0
  2  6  1  0  0  0  0
  2 12  1  0  0  0  0
  2 13  1  0  0  0  0
  3  8  1  0  0  0  0
  3 18  2  0  0  0  0
  4  8  1  6  0  0  0
  4  7  1  0  0  0  0
  4  5  1  0  0  0  0
  5  6  1  0  0  0  0
  7  9  2  0  0  0  0
  7 10  1  0  0  0  0
  8 11  2  0  0  0  0
  9 14  1  0  0  0  0
 10 15  2  0  0  0  0
 11 16  1  0  0  0  0
 14 17  2  0  0  0  0
 15 17  1  0  0  0  0
 16 19  2  0  0  0  0
 18 19  1  0  0  0  0
M  END
