380
 OpenBabel10141417483D

 19 20  0  0  1  0  0  0  0  0999 V2000
    5.9574    1.7838   -3.0238 O   0  0  0  0  0  0  0  0  0  0  0  0
    2.3317    1.2678   -5.6742 O   0  0  0  0  0  0  0  0  0  0  0  0
    3.8655    1.7994    0.6795 O   0  0  0  0  0  0  0  0  0  0  0  0
    5.9942   -1.9814    1.9888 O   0  0  0  0  0  0  0  0  0  0  0  0
    4.1207   -1.2325   -3.8053 N   0  0  0  0  0  0  0  0  0  0  0  0
    3.0300   -1.6419   -0.0616 N   0  0  0  0  0  0  0  0  0  0  0  0
    4.2220    1.5105   -4.4515 N   0  0  0  0  0  0  0  0  0  0  0  0
    4.9216   -0.1054    1.3007 N   0  0  0  0  0  0  0  0  0  0  0  0
    3.1878   -1.1641   -2.6353 C   0  0  2  0  0  0  0  0  0  0  0  0
    3.8376   -1.7106   -1.3066 C   0  0  0  0  0  0  0  0  0  0  0  0
    5.3984   -0.4939   -3.6264 C   0  0  0  0  0  0  0  0  0  0  0  0
    3.5223   -0.7621   -5.0829 C   0  0  0  0  0  0  0  0  0  0  0  0
    1.8965   -1.9677   -2.8952 C   0  0  0  0  0  0  0  0  0  0  0  0
    2.6566   -0.2647    0.3297 C   0  0  0  0  0  0  0  0  0  0  0  0
    3.7627   -2.2698    1.0714 C   0  0  0  0  0  0  0  0  0  0  0  0
    5.2228    1.0250   -3.6495 C   0  0  0  0  0  0  0  0  0  0  0  0
    3.2826    0.7467   -5.0957 C   0  0  0  0  0  0  0  0  0  0  0  0
    3.8580    0.5771    0.7601 C   0  0  0  0  0  0  0  0  0  0  0  0
    4.9953   -1.4629    1.4830 C   0  0  0  0  0  0  0  0  0  0  0  0
  1 16  2  0  0  0  0
  2 17  2  0  0  0  0
  3 18  2  0  0  0  0
  4 19  2  0  0  0  0
  5 11  1  0  0  0  0
  5 12  1  0  0  0  0
  6 10  1  0  0  0  0
  6 14  1  0  0  0  0
  6 15  1  0  0  0  0
  7 16  1  0  0  0  0
  7 17  1  0  0  0  0
  8 18  1  0  0  0  0
  8 19  1  0  0  0  0
  9 13  1  6  0  0  0
  9 10  1  0  0  0  0
  9  5  1  0  0  0  0
 11 16  1  0  0  0  0
 12 17  1  0  0  0  0
 14 18  1  0  0  0  0
 15 19  1  0  0  0  0
M  END
