
 OpenBabel10141419073D

 25 26  0  0  0  0  0  0  0  0999 V2000
    4.8753    0.4605   -5.7398 C   0  0  0  0  0  0  0  0  0  0  0  0
    3.6799    1.1532   -5.5746 C   0  0  0  0  0  0  0  0  0  0  0  0
    3.1293    1.3296   -4.2972 C   0  0  0  0  0  0  0  0  0  0  0  0
    3.7748    0.8369   -3.1492 C   0  0  0  0  0  0  0  0  0  0  0  0
    4.9701    0.1102   -3.3558 C   0  0  0  0  0  0  0  0  0  0  0  0
    5.5093   -0.0819   -4.6307 C   0  0  0  0  0  0  0  0  0  0  0  0
    3.2098    1.0207   -1.7114 C   0  0  2  0  0  0  0  0  0  0  0  0
    1.6162    1.0247   -1.6941 C   0  0  0  0  0  0  0  0  0  0  0  0
    0.7529   -0.1041   -2.2608 C   0  0  0  0  0  0  0  0  0  0  0  0
    0.3901   -2.2754   -3.3081 C   0  0  0  0  0  0  0  0  0  0  0  0
   -0.9901   -2.0888   -3.2917 C   0  0  0  0  0  0  0  0  0  0  0  0
   -1.5127   -0.9143   -2.7646 C   0  0  0  0  0  0  0  0  0  0  0  0
   -0.6503    0.0681   -2.2604 C   0  0  0  0  0  0  0  0  0  0  0  0
    1.2527   -1.2970   -2.7906 C   0  0  0  0  0  0  0  0  0  0  0  0
    3.7786    2.3790   -1.0265 C   0  0  1  0  0  0  0  0  0  0  0  0
    3.7458   -0.1496   -0.9823 O   0  0  0  0  0  0  0  0  0  0  0  0
    3.3597   -0.5888    0.2342 C   0  0  0  0  0  0  0  0  0  0  0  0
    4.1139   -1.8556    0.5846 C   0  0  0  0  0  0  0  0  0  0  0  0
    4.3275   -2.0414    2.0817 C   0  0  0  0  0  0  0  0  0  0  0  0
    5.3400    2.5398   -1.0064 C   0  0  0  0  0  0  0  0  0  0  0  0
    5.8660    3.7895   -0.3889 N   0  0  0  0  0  0  0  0  0  0  0  0
    7.3273    3.8656   -0.4594 C   0  0  0  0  0  0  0  0  0  0  0  0
    5.4286    4.0470    0.9823 C   0  0  0  0  0  0  0  0  0  0  0  0
    3.1667    3.6683   -1.6182 C   0  0  0  0  0  0  0  0  0  0  0  0
    2.5035   -0.0642    0.9447 O   0  0  0  0  0  0  0  0  0  0  0  0
  1  2  2  0  0  0  0
  1  6  1  0  0  0  0
  2  3  1  0  0  0  0
  3  4  2  0  0  0  0
  4  5  1  0  0  0  0
  5  6  2  0  0  0  0
  7 15  1  0  0  0  0
  7 16  1  1  0  0  0
  7  8  1  0  0  0  0
  7  4  1  0  0  0  0
  8  9  1  0  0  0  0
  9 14  1  0  0  0  0
 10 11  1  0  0  0  0
 10 14  2  0  0  0  0
 11 12  2  0  0  0  0
 12 13  1  0  0  0  0
 13  9  2  0  0  0  0
 15 20  1  6  0  0  0
 15 24  1  0  0  0  0
 16 17  1  0  0  0  0
 17 18  1  0  0  0  0
 17 25  2  0  0  0  0
 18 19  1  0  0  0  0
 20 21  1  0  0  0  0
 21 22  1  0  0  0  0
 21 23  1  0  0  0  0
M  END
