
 OpenBabel10141417503D

 24 25  0  0  1  0  0  0  0  0999 V2000
   -3.8043    2.1799    2.0444 C   0  0  0  0  0  0  0  0  0  0  0  0
   -3.8729    3.5071    1.6020 C   0  0  0  0  0  0  0  0  0  0  0  0
   -3.9292    4.5706    2.5134 C   0  0  0  0  0  0  0  0  0  0  0  0
   -3.9835    4.3210    3.8945 C   0  0  0  0  0  0  0  0  0  0  0  0
   -3.8924    2.9912    4.3420 C   0  0  0  0  0  0  0  0  0  0  0  0
   -3.8088    1.9301    3.4230 C   0  0  0  0  0  0  0  0  0  0  0  0
   -4.8229   -0.7236   -0.3580 C   0  0  0  0  0  0  0  0  0  0  0  0
   -3.8620   -1.4892   -0.3259 O   0  0  0  0  0  0  0  0  0  0  0  0
   -5.0357    0.4812    0.5704 C   0  0  1  0  0  0  0  0  0  0  0  0
   -3.6866    1.0485    1.0446 C   0  0  0  0  0  0  0  0  0  0  0  0
   -5.8794    1.4761   -0.1582 N   0  0  0  0  0  0  0  0  0  0  0  0
   -5.8595   -0.8765   -1.2196 O   0  0  0  0  0  0  0  0  0  0  0  0
   -3.8650    6.5031    1.6861 I   0  0  0  0  0  0  0  0  0  0  0  0
   -4.1285    5.3497    4.8105 O   0  0  0  0  0  0  0  0  0  0  0  0
   -8.9437    8.1175    4.6515 O   0  0  0  0  0  0  0  0  0  0  0  0
   -6.5994   10.0567    5.7374 I   0  0  0  0  0  0  0  0  0  0  0  0
   -5.3600    5.9879    4.8272 C   0  0  0  0  0  0  0  0  0  0  0  0
   -6.6041    8.0399    5.1671 C   0  0  0  0  0  0  0  0  0  0  0  0
   -5.3933    7.3334    5.2112 C   0  0  0  0  0  0  0  0  0  0  0  0
   -6.5423    5.3434    4.4527 C   0  0  0  0  0  0  0  0  0  0  0  0
   -7.7764    7.4065    4.7366 C   0  0  0  0  0  0  0  0  0  0  0  0
   -3.8930    2.4954    6.3790 I   0  0  0  0  0  0  0  0  0  0  0  0
   -7.7388    6.0542    4.3886 C   0  0  0  0  0  0  0  0  0  0  0  0
   -9.4399    5.0344    3.7324 I   0  0  0  0  0  0  0  0  0  0  0  0
  1 10  1  0  0  0  0
  2  1  1  0  0  0  0
  3  4  1  0  0  0  0
  3  2  2  0  0  0  0
  4 14  1  0  0  0  0
  5  4  2  0  0  0  0
  5  6  1  0  0  0  0
  5 22  1  0  0  0  0
  6  1  2  0  0  0  0
  8  7  2  0  0  0  0
  9 11  1  6  0  0  0
  9 10  1  0  0  0  0
  9  7  1  0  0  0  0
 12  7  1  0  0  0  0
 13  3  1  0  0  0  0
 14 17  1  0  0  0  0
 17 20  1  0  0  0  0
 18 16  1  0  0  0  0
 18 19  1  0  0  0  0
 18 21  2  0  0  0  0
 19 17  2  0  0  0  0
 20 23  2  0  0  0  0
 21 15  1  0  0  0  0
 23 21  1  0  0  0  0
 23 24  1  0  0  0  0
M  END
