829
 OpenBabel10141417483D

 20 22  0  0  0  0  0  0  0  0999 V2000
    0.9067   -0.0434   -0.5636 Cl  0  0  0  0  0  0  0  0  0  0  0  0
    8.9358    0.6929   -0.3807 O   0  0  0  0  0  0  0  0  0  0  0  0
    6.8377   -0.1211    0.1364 N   0  0  0  0  0  0  0  0  0  0  0  0
    6.4167    2.8716   -0.3091 N   0  0  0  0  0  0  0  0  0  0  0  0
    4.6893    1.1506    0.0052 C   0  0  0  0  0  0  0  0  0  0  0  0
    5.4133   -0.0589    0.0195 C   0  0  0  0  0  0  0  0  0  0  0  0
    5.3347    2.4703    0.2682 C   0  0  0  0  0  0  0  0  0  0  0  0
    7.0825    1.9547   -1.2281 C   0  0  0  0  0  0  0  0  0  0  0  0
    7.7082    0.8148   -0.4364 C   0  0  0  0  0  0  0  0  0  0  0  0
    4.6976    3.4022    1.2542 C   0  0  0  0  0  0  0  0  0  0  0  0
    3.2964    1.1508   -0.1982 C   0  0  0  0  0  0  0  0  0  0  0  0
    4.6827   -1.2581   -0.0912 C   0  0  0  0  0  0  0  0  0  0  0  0
    7.4512   -1.3005    0.7326 C   0  0  0  0  0  0  0  0  0  0  0  0
    2.6098   -0.0498   -0.3322 C   0  0  0  0  0  0  0  0  0  0  0  0
    3.2949   -1.2553   -0.2667 C   0  0  0  0  0  0  0  0  0  0  0  0
    4.0601    2.9204    2.4050 C   0  0  0  0  0  0  0  0  0  0  0  0
    4.7729    4.7823    1.0306 C   0  0  0  0  0  0  0  0  0  0  0  0
    3.4765    3.8143    3.3056 C   0  0  0  0  0  0  0  0  0  0  0  0
    4.1890    5.6719    1.9338 C   0  0  0  0  0  0  0  0  0  0  0  0
    3.5376    5.1873    3.0675 C   0  0  0  0  0  0  0  0  0  0  0  0
  1 14  1  0  0  0  0
  2  9  2  0  0  0  0
  3  6  1  0  0  0  0
  3  9  1  0  0  0  0
  3 13  1  0  0  0  0
  4  7  2  0  0  0  0
  4  8  1  0  0  0  0
  5  6  2  0  0  0  0
  5  7  1  0  0  0  0
  5 11  1  0  0  0  0
  6 12  1  0  0  0  0
  7 10  1  0  0  0  0
  8  9  1  0  0  0  0
 10 16  2  0  0  0  0
 10 17  1  0  0  0  0
 11 14  2  0  0  0  0
 12 15  2  0  0  0  0
 14 15  1  0  0  0  0
 16 18  1  0  0  0  0
 17 19  2  0  0  0  0
 18 20  2  0  0  0  0
 19 20  1  0  0  0  0
M  END
