485
 OpenBabel10141417533D

 30 33  0  0  1  0  0  0  0  0999 V2000
   -2.1525    4.1599    8.7024 Cl  0  0  0  0  0  0  0  0  0  0  0  0
    0.2981    5.6512    3.9291 Cl  0  0  0  0  0  0  0  0  0  0  0  0
   -2.2755    1.9594   -0.5312 S   0  0  0  0  0  0  0  0  0  0  0  0
    1.2712    4.0805    0.8122 O   0  0  0  0  0  0  0  0  0  0  0  0
    1.2655    2.4436   -3.0894 O   0  0  0  0  0  0  0  0  0  0  0  0
   -0.5650    3.2770   -4.0818 O   0  0  0  0  0  0  0  0  0  0  0  0
    0.4912    2.6014    3.9558 O   0  0  0  0  0  0  0  0  0  0  0  0
   -3.8710    3.1236    5.1921 O   0  0  0  0  0  0  0  0  0  0  0  0
    0.2970    2.6043   -0.6968 N   0  0  0  0  0  0  0  0  0  0  0  0
   -1.0170    2.2888    2.2693 N   0  0  0  0  0  0  0  0  0  0  0  0
   -3.1553    4.0147    5.9341 N   0  0  0  0  0  0  0  0  0  0  0  0
   -0.5359    1.5178   -0.1540 C   0  0  1  0  0  0  0  0  0  0  0  0
   -1.8564    3.5843   -1.3124 C   0  0  0  0  0  0  0  0  0  0  0  0
   -0.3441    3.5292   -1.6433 C   0  0  2  0  0  0  0  0  0  0  0  0
   -0.0081    1.8762    1.2633 C   0  0  1  0  0  0  0  0  0  0  0  0
    0.7080    3.0376    0.5282 C   0  0  0  0  0  0  0  0  0  0  0  0
   -2.7806    3.8352   -2.5096 C   0  0  0  0  0  0  0  0  0  0  0  0
   -2.1643    4.6698   -0.2615 C   0  0  0  0  0  0  0  0  0  0  0  0
    0.0494    3.0510   -3.0518 C   0  0  0  0  0  0  0  0  0  0  0  0
   -0.6674    2.6487    3.5609 C   0  0  0  0  0  0  0  0  0  0  0  0
   -1.7822    3.0527    4.4018 C   0  0  0  0  0  0  0  0  0  0  0  0
   -1.8685    3.9433    5.5431 C   0  0  0  0  0  0  0  0  0  0  0  0
   -3.0676    2.5481    4.2757 C   0  0  0  0  0  0  0  0  0  0  0  0
   -0.8687    4.7571    6.2826 C   0  0  0  0  0  0  0  0  0  0  0  0
   -3.7254    1.5552    3.3982 C   0  0  0  0  0  0  0  0  0  0  0  0
   -0.9658    4.9348    7.6926 C   0  0  0  0  0  0  0  0  0  0  0  0
    0.1790    5.4544    5.6465 C   0  0  0  0  0  0  0  0  0  0  0  0
   -0.0695    5.7555    8.4023 C   0  0  0  0  0  0  0  0  0  0  0  0
    1.1379    6.1768    6.3850 C   0  0  0  0  0  0  0  0  0  0  0  0
    1.0049    6.3453    7.7568 C   0  0  0  0  0  0  0  0  0  0  0  0
  1 26  1  0  0  0  0
  2 27  1  0  0  0  0
  3 13  1  0  0  0  0
  4 16  2  0  0  0  0
  5 19  1  0  0  0  0
  6 19  2  0  0  0  0
  7 20  2  0  0  0  0
  8 11  1  0  0  0  0
  8 23  1  0  0  0  0
  9 12  1  0  0  0  0
  9 14  1  0  0  0  0
  9 16  1  0  0  0  0
 10 20  1  0  0  0  0
 11 22  2  0  0  0  0
 12  3  1  1  0  0  0
 12 15  1  0  0  0  0
 13 14  1  0  0  0  0
 13 17  1  0  0  0  0
 13 18  1  0  0  0  0
 14 19  1  6  0  0  0
 15 16  1  0  0  0  0
 15 10  1  1  0  0  0
 20 21  1  0  0  0  0
 21 22  1  0  0  0  0
 21 23  2  0  0  0  0
 22 24  1  0  0  0  0
 23 25  1  0  0  0  0
 24 26  2  0  0  0  0
 24 27  1  0  0  0  0
 26 28  1  0  0  0  0
 27 29  2  0  0  0  0
 28 30  2  0  0  0  0
 29 30  1  0  0  0  0
M  END
