1144
 OpenBabel10141417483D

 16 16  0  0  0  0  0  0  0  0999 V2000
    0.8190    0.4790    0.0302 Cl  0  0  0  0  0  0  0  0  0  0  0  0
    2.6637    3.0763   -0.0941 Cl  0  0  0  0  0  0  0  0  0  0  0  0
    2.2681   -2.4373    0.0794 S   0  0  0  0  0  0  0  0  0  0  0  0
    7.1195    0.0462   -0.1335 S   0  0  0  0  0  0  0  0  0  0  0  0
    3.1839   -3.5414   -0.0962 O   0  0  0  0  0  0  0  0  0  0  0  0
    1.3521   -2.3834    1.1920 O   0  0  0  0  0  0  0  0  0  0  0  0
    7.4920   -1.2561   -0.6285 O   0  0  0  0  0  0  0  0  0  0  0  0
    7.6335    1.2720   -0.6966 O   0  0  0  0  0  0  0  0  0  0  0  0
    1.3638   -2.4049   -1.3314 N   0  0  0  0  0  0  0  0  0  0  0  0
    7.5218    0.0699    1.4932 N   0  0  0  0  0  0  0  0  0  0  0  0
    3.1848   -0.9271    0.0071 C   0  0  0  0  0  0  0  0  0  0  0  0
    5.3533    0.1482   -0.0632 C   0  0  0  0  0  0  0  0  0  0  0  0
    4.5875   -1.0173   -0.0235 C   0  0  0  0  0  0  0  0  0  0  0  0
    2.5467    0.3224   -0.0051 C   0  0  0  0  0  0  0  0  0  0  0  0
    4.7379    1.3980   -0.0939 C   0  0  0  0  0  0  0  0  0  0  0  0
    3.3424    1.4828   -0.0604 C   0  0  0  0  0  0  0  0  0  0  0  0
  1 14  1  0  0  0  0
  2 16  1  0  0  0  0
  3  5  2  0  0  0  0
  3  6  2  0  0  0  0
  3  9  1  0  0  0  0
  3 11  1  0  0  0  0
  4  7  2  0  0  0  0
  4  8  2  0  0  0  0
  4 10  1  0  0  0  0
  4 12  1  0  0  0  0
 11 13  1  0  0  0  0
 11 14  2  0  0  0  0
 12 13  2  0  0  0  0
 12 15  1  0  0  0  0
 14 16  1  0  0  0  0
 15 16  2  0  0  0  0
M  END
