
 OpenBabel10141417483D

 25 28  0  0  0  0  0  0  0  0999 V2000
    2.2521    0.5819   -0.3801 C   0  0  0  0  0  0  0  0  0  0  0  0
    1.7921    1.0014   -1.5723 C   0  0  0  0  0  0  0  0  0  0  0  0
    1.5297    0.9403    0.8676 C   0  0  0  0  0  0  0  0  0  0  0  0
    3.4611   -0.2981   -0.1651 C   0  0  0  0  0  0  0  0  0  0  0  0
    0.3610    1.6724    0.7635 O   0  0  0  0  0  0  0  0  0  0  0  0
    0.5652    1.7958   -1.6567 C   0  0  0  0  0  0  0  0  0  0  0  0
   -0.1167    2.1022   -0.4839 C   0  0  0  0  0  0  0  0  0  0  0  0
    1.9762    0.6024    1.9611 O   0  0  0  0  0  0  0  0  0  0  0  0
    2.3939    0.7375   -2.7843 O   0  0  0  0  0  0  0  0  0  0  0  0
    0.0362    2.2632   -2.8662 C   0  0  0  0  0  0  0  0  0  0  0  0
   -1.2965    2.8468   -0.4851 C   0  0  0  0  0  0  0  0  0  0  0  0
   -1.1469    3.0101   -2.8860 C   0  0  0  0  0  0  0  0  0  0  0  0
   -1.8134    3.3007   -1.6957 C   0  0  0  0  0  0  0  0  0  0  0  0
    4.7280    0.5014    0.0191 C   0  0  0  0  0  0  0  0  0  0  0  0
    5.2254    0.9171    1.1972 C   0  0  0  0  0  0  0  0  0  0  0  0
    5.4583    0.7861   -1.2417 C   0  0  0  0  0  0  0  0  0  0  0  0
    6.6286    1.5165   -1.1755 O   0  0  0  0  0  0  0  0  0  0  0  0
    6.4715    1.6842    1.2461 C   0  0  0  0  0  0  0  0  0  0  0  0
    7.1226    1.9795    0.0528 C   0  0  0  0  0  0  0  0  0  0  0  0
    5.0079    0.4012   -2.3198 O   0  0  0  0  0  0  0  0  0  0  0  0
    4.6252    0.7063    2.4206 O   0  0  0  0  0  0  0  0  0  0  0  0
    7.0265    2.1719    2.4353 C   0  0  0  0  0  0  0  0  0  0  0  0
    8.2838    2.7510    0.0117 C   0  0  0  0  0  0  0  0  0  0  0  0
    8.1924    2.9458    2.4128 C   0  0  0  0  0  0  0  0  0  0  0  0
    8.8172    3.2399    1.2008 C   0  0  0  0  0  0  0  0  0  0  0  0
  2  1  2  0  0  0  0
  3  1  1  0  0  0  0
  4  1  1  0  0  0  0
  4 14  1  0  0  0  0
  5  3  1  0  0  0  0
  6  2  1  0  0  0  0
  7  5  1  0  0  0  0
  7  6  2  0  0  0  0
  8  3  2  0  0  0  0
  9  2  1  0  0  0  0
 10  6  1  0  0  0  0
 11  7  1  0  0  0  0
 12 10  2  0  0  0  0
 13 11  2  0  0  0  0
 13 12  1  0  0  0  0
 15 14  2  0  0  0  0
 16 14  1  0  0  0  0
 17 16  1  0  0  0  0
 18 15  1  0  0  0  0
 19 17  1  0  0  0  0
 19 18  2  0  0  0  0
 20 16  2  0  0  0  0
 21 15  1  0  0  0  0
 22 18  1  0  0  0  0
 23 19  1  0  0  0  0
 24 22  2  0  0  0  0
 25 23  2  0  0  0  0
 25 24  1  0  0  0  0
M  END
