804
 OpenBabel10141417523D

 22 23  0  0  0  0  0  0  0  0999 V2000
    0.8482   -1.3271   -0.5592 O   0  0  0  0  0  0  0  0  0  0  0  0
    0.6779   -0.5496    1.5828 O   0  0  0  0  0  0  0  0  0  0  0  0
    4.4065   -2.4521    0.1837 N   0  0  0  0  0  0  0  0  0  0  0  0
   -1.3693   -0.8696    0.2493 C   0  0  0  0  0  0  0  0  0  0  0  0
   -1.9335   -2.2853    0.7174 C   0  0  0  0  0  0  0  0  0  0  0  0
   -1.6556   -0.5405   -1.2399 C   0  0  0  0  0  0  0  0  0  0  0  0
   -2.0043    0.2610    1.1233 C   0  0  0  0  0  0  0  0  0  0  0  0
   -1.4286   -3.5104   -0.0796 C   0  0  0  0  0  0  0  0  0  0  0  0
   -3.4669   -2.4282    0.8947 C   0  0  0  0  0  0  0  0  0  0  0  0
   -1.2856    0.8833   -1.6516 C   0  0  0  0  0  0  0  0  0  0  0  0
   -1.6677    1.6882    0.6891 C   0  0  0  0  0  0  0  0  0  0  0  0
   -2.1730   -3.7883   -1.3835 C   0  0  0  0  0  0  0  0  0  0  0  0
   -4.2551   -2.7115   -0.3820 C   0  0  0  0  0  0  0  0  0  0  0  0
   -1.9817    1.9153   -0.7822 C   0  0  0  0  0  0  0  0  0  0  0  0
   -3.6800   -3.8653   -1.1927 C   0  0  0  0  0  0  0  0  0  0  0  0
    0.1568   -0.8822    0.5392 C   0  0  0  0  0  0  0  0  0  0  0  0
    2.2909   -1.2349   -0.5360 C   0  0  0  0  0  0  0  0  0  0  0  0
    2.9316   -2.4665    0.1330 C   0  0  0  0  0  0  0  0  0  0  0  0
    4.9690   -3.6707    0.7904 C   0  0  0  0  0  0  0  0  0  0  0  0
    5.0750   -2.1314   -1.0881 C   0  0  0  0  0  0  0  0  0  0  0  0
    4.5886   -3.8699    2.2545 C   0  0  0  0  0  0  0  0  0  0  0  0
    4.7915   -3.0374   -2.2840 C   0  0  0  0  0  0  0  0  0  0  0  0
  1 16  1  0  0  0  0
  1 17  1  0  0  0  0
  2 16  2  0  0  0  0
  3 18  1  0  0  0  0
  3 19  1  0  0  0  0
  3 20  1  0  0  0  0
  4  5  1  0  0  0  0
  4  6  1  0  0  0  0
  4  7  1  0  0  0  0
  4 16  1  0  0  0  0
  5  8  1  0  0  0  0
  5  9  1  0  0  0  0
  6 10  1  0  0  0  0
  7 11  1  0  0  0  0
  8 12  1  0  0  0  0
  9 13  1  0  0  0  0
 10 14  1  0  0  0  0
 11 14  1  0  0  0  0
 12 15  1  0  0  0  0
 13 15  1  0  0  0  0
 17 18  1  0  0  0  0
 19 21  1  0  0  0  0
 20 22  1  0  0  0  0
M  END
