900
 OpenBabel10141417493D

 17 19  0  0  1  0  0  0  0  0999 V2000
   -0.7108   -0.9170   -0.0766 O   0  0  0  0  0  0  0  0  0  0  0  0
   -2.2141    0.8833   -1.7374 O   0  0  0  0  0  0  0  0  0  0  0  0
    1.7495   -1.6895   -5.9629 O   0  0  0  0  0  0  0  0  0  0  0  0
    1.2208   -1.0259   -1.4736 N   0  0  0  0  0  0  0  0  0  0  0  0
   -0.7837   -1.1603   -2.8642 N   0  0  0  0  0  0  0  0  0  0  0  0
    2.7213   -1.3270   -3.1170 N   0  0  0  0  0  0  0  0  0  0  0  0
   -0.4119   -1.4709   -5.2038 N   0  0  0  0  0  0  0  0  0  0  0  0
    0.7361   -0.8825   -0.1061 C   0  0  1  0  0  0  0  0  0  0  0  0
    1.1452    0.4239    0.5636 C   0  0  0  0  0  0  0  0  0  0  0  0
   -0.0312    1.3230    0.2688 C   0  0  0  0  0  0  0  0  0  0  0  0
   -1.1931    0.3546    0.4085 C   0  0  1  0  0  0  0  0  0  0  0  0
   -2.4625    0.7725   -0.3375 C   0  0  0  0  0  0  0  0  0  0  0  0
    0.5343   -1.1744   -2.6351 C   0  0  0  0  0  0  0  0  0  0  0  0
    2.5513   -1.1453   -1.8204 C   0  0  0  0  0  0  0  0  0  0  0  0
    1.4466   -1.3518   -3.6400 C   0  0  0  0  0  0  0  0  0  0  0  0
    0.9788   -1.5234   -5.0262 C   0  0  0  0  0  0  0  0  0  0  0  0
   -1.1743   -1.2898   -4.1729 C   0  0  0  0  0  0  0  0  0  0  0  0
  1  8  1  0  0  0  0
  1 11  1  0  0  0  0
  2 12  1  0  0  0  0
  3 16  2  0  0  0  0
  4 13  1  0  0  0  0
  4 14  1  0  0  0  0
  5 13  1  0  0  0  0
  5 17  1  0  0  0  0
  6 14  2  0  0  0  0
  6 15  1  0  0  0  0
  7 16  1  0  0  0  0
  7 17  2  0  0  0  0
  8  4  1  6  0  0  0
  8  9  1  0  0  0  0
  9 10  1  0  0  0  0
 10 11  1  0  0  0  0
 11 12  1  6  0  0  0
 13 15  2  0  0  0  0
 15 16  1  0  0  0  0
M  END
