1501
 OpenBabel10141418073D

 32 35  0  0  0  0  0  0  0  0999 V2000
   -0.9715    0.9899    0.2144 O   0  0  0  0  0  0  0  0  0  0  0  0
    0.6770    0.3628   -1.1279 O   0  0  0  0  0  0  0  0  0  0  0  0
    0.9722   -2.3081    2.4619 N   0  0  0  0  0  0  0  0  0  0  0  0
    5.0993   -1.1798    5.0130 N   0  0  0  0  0  0  0  0  0  0  0  0
    1.1558    0.4921    1.3009 C   0  0  0  0  0  0  0  0  0  0  0  0
    2.2197   -0.6299    1.1009 C   0  0  0  0  0  0  0  0  0  0  0  0
    0.2601    0.1185    2.5195 C   0  0  0  0  0  0  0  0  0  0  0  0
    1.6941   -2.0562    1.2104 C   0  0  0  0  0  0  0  0  0  0  0  0
   -0.1522   -1.3619    2.5483 C   0  0  0  0  0  0  0  0  0  0  0  0
    1.8087   -2.3093    3.6889 C   0  0  0  0  0  0  0  0  0  0  0  0
    1.8393    1.8719    1.5438 C   0  0  0  0  0  0  0  0  0  0  0  0
    2.8876   -3.4268    3.6840 C   0  0  0  0  0  0  0  0  0  0  0  0
    0.3010    0.5771    0.0149 C   0  0  0  0  0  0  0  0  0  0  0  0
    3.8334   -3.5215    4.9502 C   0  0  0  0  0  0  0  0  0  0  0  0
    1.0698    3.0323    1.7527 C   0  0  0  0  0  0  0  0  0  0  0  0
    3.2411    2.0260    1.5885 C   0  0  0  0  0  0  0  0  0  0  0  0
    3.0379   -3.7660    6.2634 C   0  0  0  0  0  0  0  0  0  0  0  0
    4.8982   -4.6676    4.7732 C   0  0  0  0  0  0  0  0  0  0  0  0
    1.6747    4.2697    2.0176 C   0  0  0  0  0  0  0  0  0  0  0  0
    3.8434    3.2549    1.8721 C   0  0  0  0  0  0  0  0  0  0  0  0
    4.5501   -2.1937    4.9874 C   0  0  0  0  0  0  0  0  0  0  0  0
    3.0602    4.3782    2.0897 C   0  0  0  0  0  0  0  0  0  0  0  0
    1.8381   -4.5050    6.2727 C   0  0  0  0  0  0  0  0  0  0  0  0
    4.6496   -5.8039    3.9774 C   0  0  0  0  0  0  0  0  0  0  0  0
    3.4995   -3.2810    7.5064 C   0  0  0  0  0  0  0  0  0  0  0  0
    6.1476   -4.6251    5.4378 C   0  0  0  0  0  0  0  0  0  0  0  0
    1.1166   -4.7155    7.4522 C   0  0  0  0  0  0  0  0  0  0  0  0
    5.5905   -6.8348    3.8479 C   0  0  0  0  0  0  0  0  0  0  0  0
    2.7803   -3.5002    8.6872 C   0  0  0  0  0  0  0  0  0  0  0  0
    7.0869   -5.6593    5.3086 C   0  0  0  0  0  0  0  0  0  0  0  0
    1.5881   -4.2150    8.6595 C   0  0  0  0  0  0  0  0  0  0  0  0
    6.8063   -6.7663    4.5166 C   0  0  0  0  0  0  0  0  0  0  0  0
  1 13  1  0  0  0  0
  2 13  2  0  0  0  0
  3  8  1  0  0  0  0
  3  9  1  0  0  0  0
  3 10  1  0  0  0  0
  4 21  3  0  0  0  0
  5  6  1  0  0  0  0
  5  7  1  0  0  0  0
  5 11  1  0  0  0  0
  5 13  1  0  0  0  0
  6  8  1  0  0  0  0
  7  9  1  0  0  0  0
 10 12  1  0  0  0  0
 11 15  2  0  0  0  0
 11 16  1  0  0  0  0
 12 14  1  0  0  0  0
 14 17  1  0  0  0  0
 14 18  1  0  0  0  0
 14 21  1  0  0  0  0
 15 19  1  0  0  0  0
 16 20  2  0  0  0  0
 17 23  2  0  0  0  0
 17 25  1  0  0  0  0
 18 24  2  0  0  0  0
 18 26  1  0  0  0  0
 19 22  2  0  0  0  0
 20 22  1  0  0  0  0
 23 27  1  0  0  0  0
 24 28  1  0  0  0  0
 25 29  2  0  0  0  0
 26 30  2  0  0  0  0
 27 31  2  0  0  0  0
 28 32  2  0  0  0  0
 29 31  1  0  0  0  0
 30 32  1  0  0  0  0
M  END
