
 OpenBabel10141417493D

 36 39  0  0  1  0  0  0  0  0999 V2000
   -3.6643   -7.7972   -2.2573 C   0  0  0  0  0  0  0  0  0  0  0  0
   -2.1634   -7.5710   -2.1637 C   0  0  0  0  0  0  0  0  0  0  0  0
   -1.3686   -8.8017   -1.7360 C   0  0  0  0  0  0  0  0  0  0  0  0
    0.0966   -8.4149   -1.6106 C   0  0  0  0  0  0  0  0  0  0  0  0
    0.5912   -8.0003   -0.5957 O   0  0  0  0  0  0  0  0  0  0  0  0
    0.7347   -8.4867   -2.8216 O   0  0  0  0  0  0  0  0  0  0  0  0
    2.1212   -8.0842   -2.8920 C   0  0  2  0  0  0  0  0  0  0  0  0
    3.0212   -8.8914   -1.9201 C   0  0  0  0  0  0  0  0  0  0  0  0
    4.4214   -8.8235   -2.5384 C   0  0  0  0  0  0  0  0  0  0  0  0
    4.1509   -9.0873   -4.0113 C   0  0  2  0  0  0  0  0  0  0  0  0
    2.6837   -8.6103   -4.3113 C   0  0  2  0  0  0  0  0  0  0  0  0
    2.4667   -7.5380   -5.4124 C   0  0  0  0  0  0  0  0  0  0  0  0
    3.6101   -7.3250   -6.4043 C   0  0  1  0  0  0  0  0  0  0  0  0
    4.9633   -7.2894   -5.6525 C   0  0  1  0  0  0  0  0  0  0  0  0
    5.1771   -8.7004   -5.0702 C   0  0  1  0  0  0  0  0  0  0  0  0
    6.6271   -8.9570   -4.7114 C   0  0  0  0  0  0  0  0  0  0  0  0
    7.4133   -9.0120   -6.0246 C   0  0  1  0  0  0  0  0  0  0  0  0
    7.1132   -7.8839   -7.0208 C   0  0  0  0  0  0  0  0  0  0  0  0
    8.1463   -7.5021   -7.8079 C   0  0  0  0  0  0  0  0  0  0  0  0
    9.0303   -6.4904   -7.1061 C   0  0  0  0  0  0  0  0  0  0  0  0
   10.1203   -6.1796   -7.5687 O   0  0  0  0  0  0  0  0  0  0  0  0
    8.4693   -5.7948   -5.9065 C   0  0  0  0  0  0  0  0  0  0  0  0
    7.1568   -5.8924   -5.6210 C   0  0  0  0  0  0  0  0  0  0  0  0
    6.2043   -6.7536   -6.4790 C   0  0  2  0  0  0  0  0  0  0  0  0
    5.7174   -5.7781   -7.5856 C   0  0  0  0  0  0  0  0  0  0  0  0
    8.7382   -9.0643   -5.7081 F   0  0  0  0  0  0  0  0  0  0  0  0
    4.7866   -6.4216   -4.6055 F   0  0  0  0  0  0  0  0  0  0  0  0
    3.5900   -8.3272   -7.4194 O   0  0  0  0  0  0  0  0  0  0  0  0
    2.0122   -9.9092   -4.8765 C   0  0  0  0  0  0  0  0  0  0  0  0
    2.4084   -6.5197   -2.5499 C   0  0  0  0  0  0  0  0  0  0  0  0
    3.5382   -6.1162   -2.2508 O   0  0  0  0  0  0  0  0  0  0  0  0
    1.2691   -5.4890   -2.6233 C   0  0  0  0  0  0  0  0  0  0  0  0
    1.6325   -4.1549   -2.1858 O   0  0  0  0  0  0  0  0  0  0  0  0
    1.4647   -3.1510   -3.0897 C   0  0  0  0  0  0  0  0  0  0  0  0
    1.2427   -3.3125   -4.2770 O   0  0  0  0  0  0  0  0  0  0  0  0
    1.5145   -1.7885   -2.4384 C   0  0  0  0  0  0  0  0  0  0  0  0
  1  2  1  0  0  0  0
  2  3  1  0  0  0  0
  3  4  1  0  0  0  0
  4  5  2  0  0  0  0
  4  6  1  0  0  0  0
  7  6  1  6  0  0  0
  7  8  1  0  0  0  0
  7 11  1  0  0  0  0
  7 30  1  0  0  0  0
  8  9  1  0  0  0  0
 10  9  1  6  0  0  0
 10 11  1  0  0  0  0
 10 15  1  0  0  0  0
 11 12  1  0  0  0  0
 11 29  1  6  0  0  0
 12 13  1  0  0  0  0
 13 14  1  0  0  0  0
 13 28  1  6  0  0  0
 14 15  1  0  0  0  0
 14 24  1  0  0  0  0
 14 27  1  1  0  0  0
 15 16  1  1  0  0  0
 16 17  1  0  0  0  0
 17 18  1  0  0  0  0
 17 26  1  1  0  0  0
 18 19  2  0  0  0  0
 18 24  1  0  0  0  0
 19 20  1  0  0  0  0
 20 21  2  0  0  0  0
 20 22  1  0  0  0  0
 22 23  2  0  0  0  0
 23 24  1  0  0  0  0
 24 25  1  6  0  0  0
 30 31  2  0  0  0  0
 30 32  1  0  0  0  0
 32 33  1  0  0  0  0
 33 34  1  0  0  0  0
 34 35  2  0  0  0  0
 34 36  1  0  0  0  0
M  END
