5280581
 OpenBabel10141417493D

 22 21  0  0  0  0  0  0  0  0999 V2000
   14.6251    2.8067   -3.0841 O   0  0  0  0  0  0  0  0  0  0  0  0
   13.5270    4.1623   -1.6087 O   0  0  0  0  0  0  0  0  0  0  0  0
   13.8873    0.6677    1.4825 C   0  0  0  0  0  0  0  0  0  0  0  0
   14.4334    0.1693    0.1289 C   0  0  0  0  0  0  0  0  0  0  0  0
   13.2573    2.0716    1.5730 C   0  0  0  0  0  0  0  0  0  0  0  0
   15.5402    1.0298   -0.5495 C   0  0  0  0  0  0  0  0  0  0  0  0
   12.1226    2.4426    0.5884 C   0  0  0  0  0  0  0  0  0  0  0  0
   15.4268    2.5846   -0.8152 C   0  0  0  0  0  0  0  0  0  0  0  0
    6.4976    0.7155    4.5475 C   0  0  0  0  0  0  0  0  0  0  0  0
    6.3644    0.3166    6.0219 C   0  0  0  0  0  0  0  0  0  0  0  0
    7.6952    0.0853    3.8297 C   0  0  0  0  0  0  0  0  0  0  0  0
    6.1412   -1.1797    6.2572 C   0  0  0  0  0  0  0  0  0  0  0  0
   12.2740    1.9373   -0.7844 C   0  0  0  0  0  0  0  0  0  0  0  0
   11.6588    1.1810   -1.6530 C   0  0  0  0  0  0  0  0  0  0  0  0
    7.7364    0.5100    2.3934 C   0  0  0  0  0  0  0  0  0  0  0  0
   14.5059    3.3635   -1.8450 C   0  0  0  0  0  0  0  0  0  0  0  0
    6.0009   -1.5026    7.7406 C   0  0  0  0  0  0  0  0  0  0  0  0
   10.5234    0.2333   -1.3195 C   0  0  0  0  0  0  0  0  0  0  0  0
    8.8379    0.6184    1.6383 C   0  0  0  0  0  0  0  0  0  0  0  0
   10.2294    0.2720    2.0327 C   0  0  0  0  0  0  0  0  0  0  0  0
   10.9964   -0.7407   -0.2643 C   0  0  0  0  0  0  0  0  0  0  0  0
   10.8729   -0.7101    1.0818 C   0  0  0  0  0  0  0  0  0  0  0  0
  1 16  1  0  0  0  0
  2 16  2  0  0  0  0
  3  4  1  0  0  0  0
  3  5  1  0  0  0  0
  4  6  1  0  0  0  0
  5  7  1  0  0  0  0
  6  8  1  0  0  0  0
  7 13  1  0  0  0  0
  8 16  1  0  0  0  0
  9 10  1  0  0  0  0
  9 11  1  0  0  0  0
 10 12  1  0  0  0  0
 11 15  1  0  0  0  0
 12 17  1  0  0  0  0
 13 14  2  0  0  0  0
 14 18  1  0  0  0  0
 15 19  2  0  0  0  0
 18 21  1  0  0  0  0
 19 20  1  0  0  0  0
 20 22  1  0  0  0  0
 21 22  2  0  0  0  0
M  END
