1375
 OpenBabel10141417523D

  8  5  0  0  0  0  0  0  0  0999 V2000
    1.7317    1.4374   -1.1162 Al  0  0  0  0  0  0  0  0  0  0  0  0
    2.9503    1.7831    0.2044 O   0  0  0  0  0  0  0  0  0  0  0  0
   -0.0425   -1.6025    0.3866 O   0  0  0  0  0  0  0  0  0  0  0  0
    0.0926    1.8235    0.4063 O   0  0  0  0  0  0  0  0  0  0  0  0
    3.1573    0.0219    1.5396 O   0  0  0  0  0  0  0  0  0  0  0  0
    5.7460    1.7945    1.9337 N   0  0  0  0  0  0  0  0  0  0  0  0
    5.2259    0.9533    0.8586 C   0  0  0  0  0  0  0  0  0  0  0  0
    3.7137    0.8919    0.8867 C   0  0  0  0  0  0  0  0  0  0  0  0
  1  2  1  0  0  0  0
  2  8  1  0  0  0  0
  5  8  2  0  0  0  0
  6  7  1  0  0  0  0
  7  8  1  0  0  0  0
M  RAD  1   1   3
M  END
