
 OpenBabel10141417503D

 29 31  0  0  1  0  0  0  0  0999 V2000
    1.6470   -1.4449    1.5317 C   0  0  0  0  0  0  0  0  0  0  0  0
    1.3619   -1.9756    4.4284 C   0  0  0  0  0  0  0  0  0  0  0  0
    2.6308   -3.8322    3.1415 C   0  0  0  0  0  0  0  0  0  0  0  0
    3.5459   -3.8302    1.9061 C   0  0  0  0  0  0  0  0  0  0  0  0
    0.4434   -0.8886    2.2803 C   0  0  0  0  0  0  0  0  0  0  0  0
    1.3810   -1.9369    5.7749 C   0  0  0  0  0  0  0  0  0  0  0  0
    0.1485   -1.6455    3.5767 C   0  0  0  0  0  0  0  0  0  0  0  0
    0.2836   -1.5650    6.6536 C   0  0  0  0  0  0  0  0  0  0  0  0
    0.1016   -1.9777    7.9201 C   0  0  0  0  0  0  0  0  0  0  0  0
    1.0115   -2.9509    8.6457 C   0  0  0  0  0  0  0  0  0  0  0  0
   -1.1213   -1.6366    8.7844 C   0  0  2  0  0  0  0  0  0  0  0  0
    0.2523   -4.2647    8.8458 C   0  0  2  0  0  0  0  0  0  0  0  0
   -1.8942   -2.9375    9.0986 C   0  0  0  0  0  0  0  0  0  0  0  0
   -1.0015   -4.0333    9.6903 C   0  0  0  0  0  0  0  0  0  0  0  0
    6.0743   -0.8521    1.3650 C   0  0  0  0  0  0  0  0  0  0  0  0
    5.5317   -2.1720    1.9446 C   0  0  2  0  0  0  0  0  0  0  0  0
    5.9327   -2.4548    3.3764 C   0  0  0  0  0  0  0  0  0  0  0  0
    6.5795   -1.6331    4.2303 C   0  0  0  0  0  0  0  0  0  0  0  0
    9.1023   -3.0889    5.2885 C   0  0  0  0  0  0  0  0  0  0  0  0
    8.3335   -2.0217    6.0776 C   0  0  0  0  0  0  0  0  0  0  0  0
    9.0546   -0.6785    5.9272 C   0  0  0  0  0  0  0  0  0  0  0  0
    6.8294   -1.9786    5.6821 C   0  0  1  0  0  0  0  0  0  0  0  0
    4.0009   -2.3654    1.6541 C   0  0  2  0  0  0  0  0  0  0  0  0
    2.6229   -2.3921    3.6707 C   0  0  2  0  0  0  0  0  0  0  0  0
    2.9222   -1.5313    2.4227 C   0  0  2  0  0  0  0  0  0  0  0  0
    3.3389   -0.1156    2.8392 C   0  0  0  0  0  0  0  0  0  0  0  0
    6.0306   -0.9884    6.5412 C   0  0  0  0  0  0  0  0  0  0  0  0
   -2.0864   -0.5897    8.2192 C   0  0  0  0  0  0  0  0  0  0  0  0
    1.0821   -5.2218    9.4951 O   0  0  0  0  0  0  0  0  0  0  0  0
  1  5  1  0  0  0  0
  2  6  2  0  0  0  0
  2  7  1  0  0  0  0
  3  4  1  0  0  0  0
  5  7  1  0  0  0  0
  6  8  1  0  0  0  0
  8  9  2  0  0  0  0
  9 10  1  0  0  0  0
  9 11  1  0  0  0  0
 10 12  1  0  0  0  0
 11 13  1  0  0  0  0
 11 28  1  6  0  0  0
 12 14  1  0  0  0  0
 12 29  1  1  0  0  0
 13 14  1  0  0  0  0
 16 17  1  6  0  0  0
 16 15  1  0  0  0  0
 17 18  2  0  0  0  0
 20 19  1  0  0  0  0
 20 21  1  0  0  0  0
 22 18  1  6  0  0  0
 22 20  1  0  0  0  0
 22 27  1  0  0  0  0
 23  4  1  1  0  0  0
 23 16  1  0  0  0  0
 24 25  1  0  0  0  0
 24  2  1  1  0  0  0
 24  3  1  0  0  0  0
 25 23  1  0  0  0  0
 25  1  1  0  0  0  0
 25 26  1  1  0  0  0
M  END
