
 OpenBabel10141417493D

  6  5  0  0  0  0  0  0  0  0999 V2000
    0.8020    0.1325   -0.3014 C   0  0  0  0  0  0  0  0  0  0  0  0
    0.3932    0.1747    1.1787 C   0  0  3  0  0  0  0  0  0  0  0  0
    0.7462    1.5342    1.8036 C   0  0  0  0  0  0  0  0  0  0  0  0
    0.4394    1.6077    3.6009 S   0  0  0  0  0  0  0  0  0  0  0  0
   -1.4079   -0.1971    1.3066 S   0  0  0  0  0  0  0  0  0  0  0  0
    0.1210    1.1201   -1.0700 O   0  0  0  0  0  0  0  0  0  0  0  0
  1  2  1  0  0  0  0
  1  6  1  0  0  0  0
  2  3  1  0  0  0  0
  2  5  1  0  0  0  0
  3  4  1  0  0  0  0
M  END
