
 OpenBabel10141418003D

 31 32  0  0  0  0  0  0  0  0999 V2000
    4.4542    2.4786   -2.7219 C   0  0  0  0  0  0  0  0  0  0  0  0
    5.0883    4.0525   -0.2865 C   0  0  0  0  0  0  0  0  0  0  0  0
    2.9836    3.5218    0.6326 C   0  0  0  0  0  0  0  0  0  0  0  0
   -2.6403    5.8658   -1.5315 C   0  0  0  0  0  0  0  0  0  0  0  0
   -2.6877    7.8395   -2.9890 C   0  0  0  0  0  0  0  0  0  0  0  0
    1.8222   -2.1079   -3.5439 C   0  0  0  0  0  0  0  0  0  0  0  0
    1.8983   -2.2178   -4.9249 C   0  0  0  0  0  0  0  0  0  0  0  0
    1.6577   -0.8495   -2.9395 C   0  0  0  0  0  0  0  0  0  0  0  0
    1.7908   -1.0699   -5.6979 C   0  0  0  0  0  0  0  0  0  0  0  0
    0.0964    5.1263   -5.0871 C   0  0  0  0  0  0  0  0  0  0  0  0
    0.5343    4.0234   -5.8086 C   0  0  0  0  0  0  0  0  0  0  0  0
    0.4127    3.8683   -3.0297 C   0  0  0  0  0  0  0  0  0  0  0  0
    2.1787    1.8390   -1.7583 C   0  0  0  0  0  0  0  0  0  0  0  0
    3.3648    2.9105   -1.7252 C   0  0  3  0  0  0  0  0  0  0  0  0
    0.0157    5.0415   -3.6978 C   0  0  0  0  0  0  0  0  0  0  0  0
    1.6158    0.3440   -3.6906 C   0  0  0  0  0  0  0  0  0  0  0  0
    0.9472    2.7689   -3.7391 C   0  0  0  0  0  0  0  0  0  0  0  0
    1.6486    0.1948   -5.0941 C   0  0  0  0  0  0  0  0  0  0  0  0
    0.9460    2.8535   -5.1504 C   0  0  0  0  0  0  0  0  0  0  0  0
    3.9758    3.0816   -0.3542 N   0  0  0  0  0  0  0  0  0  0  0  0
   -2.0333    6.5495   -2.6890 N   0  0  0  0  0  0  0  0  0  0  0  0
    1.4856    1.6284   -3.0785 N   0  0  0  0  0  0  0  0  0  0  0  0
    0.1993    6.3626   -1.4428 O   0  0  0  0  0  0  0  0  0  0  0  0
    0.0926    7.6410   -3.6129 O   0  0  0  0  0  0  0  0  0  0  0  0
    1.5762    1.5732   -6.2107 S   0  0  0  0  0  0  0  0  0  0  0  0
   -0.3344    6.5367   -2.7784 S   0  0  0  0  0  0  0  0  0  0  0  0
    1.5095   -3.6469    1.0877 C   0  0  0  0  0  0  0  0  0  0  0  0
    3.6991   -4.0220    2.3645 O   0  0  0  0  0  0  0  0  0  0  0  0
    3.2403   -5.5372    0.4512 O   0  0  0  0  0  0  0  0  0  0  0  0
    3.8922   -3.1125    0.1058 O   0  0  0  0  0  0  0  0  0  0  0  0
    3.1987   -4.1376    0.8345 S   0  0  0  0  0  0  0  0  0  0  0  0
  7  6  2  0  0  0  0
  8  6  1  0  0  0  0
  9  7  1  0  0  0  0
 11 10  2  0  0  0  0
 14  1  1  0  0  0  0
 14 13  1  0  0  0  0
 15 10  1  0  0  0  0
 15 12  2  0  0  0  0
 16  8  2  0  0  0  0
 17 12  1  0  0  0  0
 18  9  2  0  0  0  0
 18 16  1  0  0  0  0
 19 11  1  0  0  0  0
 19 17  2  0  0  0  0
 20  2  1  0  0  0  0
 20  3  1  0  0  0  0
 20 14  1  0  0  0  0
 21  4  1  0  0  0  0
 21  5  1  0  0  0  0
 22 13  1  0  0  0  0
 22 16  1  0  0  0  0
 22 17  1  0  0  0  0
 25 18  1  0  0  0  0
 25 19  1  0  0  0  0
 26 15  1  0  0  0  0
 26 21  1  0  0  0  0
 26 23  2  0  0  0  0
 26 24  2  0  0  0  0
 31 27  1  0  0  0  0
 31 28  1  0  0  0  0
 31 29  2  0  0  0  0
 31 30  2  0  0  0  0
M  END
