
 OpenBabel10141417493D

 22 24  0  0  0  0  0  0  0  0999 V2000
    2.2650    0.2999   -0.0053 C   0  0  0  0  0  0  0  0  0  0  0  0
    2.1032   -1.0922   -0.0340 C   0  0  0  0  0  0  0  0  0  0  0  0
    0.8281   -1.6499   -0.0675 C   0  0  0  0  0  0  0  0  0  0  0  0
    1.1517    1.1536    0.0058 C   0  0  0  0  0  0  0  0  0  0  0  0
   -0.1199    0.6063   -0.0159 C   0  0  0  0  0  0  0  0  0  0  0  0
   -0.2631   -0.7901   -0.0608 C   0  0  0  0  0  0  0  0  0  0  0  0
   -1.7092   -1.1565   -0.0920 C   0  0  0  0  0  0  0  0  0  0  0  0
   -2.3542    0.2107   -0.0144 C   0  0  0  0  0  0  0  0  0  0  0  0
   -1.4613    1.2230    0.0142 C   0  0  0  0  0  0  0  0  0  0  0  0
   -3.8552    0.2872   -0.0175 C   0  0  0  0  0  0  0  0  0  0  0  0
   -4.4523    0.2489    1.4033 C   0  0  0  0  0  0  0  0  0  0  0  0
   -5.9256    0.3423    1.4447 N   0  0  0  0  0  0  0  0  0  0  0  0
   -6.4373    1.5711    0.8351 C   0  0  0  0  0  0  0  0  0  0  0  0
   -6.3904    0.2641    2.8346 C   0  0  0  0  0  0  0  0  0  0  0  0
   -1.7558    2.7102    0.0401 C   0  0  3  0  0  0  0  0  0  0  0  0
   -1.5037    3.3844    1.3879 C   0  0  0  0  0  0  0  0  0  0  0  0
   -1.1052    3.4861   -1.1163 C   0  0  0  0  0  0  0  0  0  0  0  0
   -2.5328    3.4955    2.3284 C   0  0  0  0  0  0  0  0  0  0  0  0
   -2.2927    4.1411    3.5397 C   0  0  0  0  0  0  0  0  0  0  0  0
   -1.0364    4.6751    3.7827 C   0  0  0  0  0  0  0  0  0  0  0  0
   -0.0702    4.5316    2.8032 C   0  0  0  0  0  0  0  0  0  0  0  0
   -0.2718    3.9011    1.6249 N   0  0  0  0  0  0  0  0  0  0  0  0
  1  2  2  0  0  0  0
  2  3  1  0  0  0  0
  3  6  2  0  0  0  0
  4  1  1  0  0  0  0
  5  6  1  0  0  0  0
  5  4  2  0  0  0  0
  6  7  1  0  0  0  0
  7  8  1  0  0  0  0
  8  9  2  0  0  0  0
  8 10  1  0  0  0  0
  9 15  1  0  0  0  0
  9  5  1  0  0  0  0
 10 11  1  0  0  0  0
 11 12  1  0  0  0  0
 12 14  1  0  0  0  0
 12 13  1  0  0  0  0
 15 16  1  0  0  0  0
 15 17  1  0  0  0  0
 16 18  2  0  0  0  0
 18 19  1  0  0  0  0
 19 20  2  0  0  0  0
 20 21  1  0  0  0  0
 21 22  2  0  0  0  0
 22 16  1  0  0  0  0
M  END
