
 OpenBabel10141417513D

 43 47  0  0  0  0  0  0  0  0999 V2000
    1.1445   -4.3938   -1.5542 C   0  0  0  0  0  0  0  0  0  0  0  0
   -1.6041   12.6137   -0.8062 C   0  0  0  0  0  0  0  0  0  0  0  0
   -4.1372    8.6221   -1.7248 C   0  0  0  0  0  0  0  0  0  0  0  0
   -3.2551    9.6470   -2.1017 C   0  0  0  0  0  0  0  0  0  0  0  0
   -4.3046    9.5917    0.4659 C   0  0  0  0  0  0  0  0  0  0  0  0
   -7.1759    2.8817    0.9165 C   0  0  0  0  0  0  0  0  0  0  0  0
   -5.7940    3.9762   -0.7337 C   0  0  0  0  0  0  0  0  0  0  0  0
   -6.5530    7.7342    0.9170 C   0  0  0  0  0  0  0  0  0  0  0  0
   -2.7300   -1.9023   -0.7524 C   0  0  0  0  0  0  0  0  0  0  0  0
    0.1096   -3.4260   -2.1267 C   0  0  1  0  0  0  0  0  0  0  0  0
   -4.6864    8.5885   -0.4376 C   0  0  0  0  0  0  0  0  0  0  0  0
   -6.2154    2.8053   -0.0954 C   0  0  0  0  0  0  0  0  0  0  0  0
   -3.4366   10.6184    0.0885 C   0  0  0  0  0  0  0  0  0  0  0  0
   -7.6297    4.1278    1.3581 C   0  0  0  0  0  0  0  0  0  0  0  0
   -7.4085    6.6160    1.3598 C   0  0  0  0  0  0  0  0  0  0  0  0
   -2.8930   10.6558   -1.1984 C   0  0  0  0  0  0  0  0  0  0  0  0
   -5.6259    7.5200   -0.0187 C   0  0  0  0  0  0  0  0  0  0  0  0
   -6.1417    5.2144   -0.1968 C   0  0  0  0  0  0  0  0  0  0  0  0
   -2.9022   -0.4041   -0.4488 C   0  0  2  0  0  0  0  0  0  0  0  0
   -7.0721    5.2906    0.8293 C   0  0  0  0  0  0  0  0  0  0  0  0
    0.4189   -3.1411   -3.6111 C   0  0  1  0  0  0  0  0  0  0  0  0
   -3.1364   -0.0990    1.0311 C   0  0  2  0  0  0  0  0  0  0  0  0
   -0.7967   -2.6592   -4.4101 C   0  0  2  0  0  0  0  0  0  0  0  0
   -2.8443    1.3931    1.2300 C   0  0  1  0  0  0  0  0  0  0  0  0
   -2.0378   -3.4809   -4.0729 C   0  0  2  0  0  0  0  0  0  0  0  0
   -3.2975    2.2438    0.0302 C   0  0  2  0  0  0  0  0  0  0  0  0
   -2.2587   -3.4175   -2.5483 C   0  0  2  0  0  0  0  0  0  0  0  0
   -4.3476    1.5159   -0.8754 C   0  0  2  0  0  0  0  0  0  0  0  0
   -3.1508   11.5756    1.0230 O   0  0  0  0  0  0  0  0  0  0  0  0
   -8.5782    4.1395    2.3421 O   0  0  0  0  0  0  0  0  0  0  0  0
   -8.3052    6.7741    2.1575 O   0  0  0  0  0  0  0  0  0  0  0  0
    1.4561   -2.1492   -3.7348 O   0  0  0  0  0  0  0  0  0  0  0  0
   -2.3131   -0.8624    1.9126 O   0  0  0  0  0  0  0  0  0  0  0  0
   -0.5120   -2.7799   -5.8175 O   0  0  0  0  0  0  0  0  0  0  0  0
   -3.5006    1.8456    2.4240 O   0  0  0  0  0  0  0  0  0  0  0  0
   -1.8565   -4.8334   -4.5279 O   0  0  0  0  0  0  0  0  0  0  0  0
   -2.1492    2.5992   -0.7684 O   0  0  0  0  0  0  0  0  0  0  0  0
   -2.0174   11.5845   -1.7012 O   0  0  0  0  0  0  0  0  0  0  0  0
   -2.4296   -2.0543   -2.1497 O   0  0  0  0  0  0  0  0  0  0  0  0
   -1.1582   -4.0344   -1.8799 O   0  0  0  0  0  0  0  0  0  0  0  0
   -5.6819    1.5587   -0.3250 O   0  0  0  0  0  0  0  0  0  0  0  0
   -5.4626    6.3087   -0.6811 O   0  0  0  0  0  0  0  0  0  0  0  0
   -4.0068    0.1438   -1.1927 O   0  0  0  0  0  0  0  0  0  0  0  0
  4  3  2  0  0  0  0
 10  1  1  6  0  0  0
 11  3  1  0  0  0  0
 11  5  2  0  0  0  0
 12  6  2  0  0  0  0
 12  7  1  0  0  0  0
 13  5  1  0  0  0  0
 14  6  1  0  0  0  0
 15  8  1  0  0  0  0
 16  4  1  0  0  0  0
 16 13  2  0  0  0  0
 17  8  2  0  0  0  0
 17 11  1  0  0  0  0
 18  7  2  0  0  0  0
 19  9  1  1  0  0  0
 20 14  2  0  0  0  0
 20 15  1  0  0  0  0
 20 18  1  0  0  0  0
 21 10  1  0  0  0  0
 21 32  1  1  0  0  0
 22 19  1  0  0  0  0
 22 33  1  1  0  0  0
 23 21  1  0  0  0  0
 23 34  1  6  0  0  0
 24 22  1  0  0  0  0
 24 35  1  1  0  0  0
 25 23  1  0  0  0  0
 25 36  1  1  0  0  0
 26 24  1  0  0  0  0
 26 37  1  6  0  0  0
 27 25  1  0  0  0  0
 27 39  1  1  0  0  0
 28 26  1  0  0  0  0
 28 41  1  1  0  0  0
 29 13  1  0  0  0  0
 30 14  1  0  0  0  0
 31 15  2  0  0  0  0
 38  2  1  0  0  0  0
 38 16  1  0  0  0  0
 39  9  1  0  0  0  0
 40 10  1  0  0  0  0
 40 27  1  0  0  0  0
 41 12  1  0  0  0  0
 42 17  1  0  0  0  0
 42 18  1  0  0  0  0
 43 19  1  0  0  0  0
 43 28  1  0  0  0  0
M  END
