975
 OpenBabel10141417523D

 36 39  0  0  0  0  0  0  0  0999 V2000
    4.2847    2.9929   -4.1675 O   0  0  0  0  0  0  0  0  0  0  0  0
    4.9921   -2.4476   -2.6114 O   0  0  0  0  0  0  0  0  0  0  0  0
   11.2442    3.3768    2.2523 O   0  0  0  0  0  0  0  0  0  0  0  0
    9.2243    2.4194    6.9885 O   0  0  0  0  0  0  0  0  0  0  0  0
    5.7051    4.5761    1.0292 N   0  0  0  0  0  0  0  0  0  0  0  0
    7.5982   -1.3438    0.8946 N   0  0  0  0  0  0  0  0  0  0  0  0
    4.9444    2.8202   -0.3122 N   0  0  0  0  0  0  0  0  0  0  0  0
    8.3184    0.3573    2.3800 N   0  0  0  0  0  0  0  0  0  0  0  0
    5.7967    0.7032   -0.3077 N   0  0  0  0  0  0  0  0  0  0  0  0
    7.5596    2.5673    2.3155 N   0  0  0  0  0  0  0  0  0  0  0  0
    4.1074    1.1627   -1.7949 N   0  0  0  0  0  0  0  0  0  0  0  0
    9.2283    1.8574    3.8674 N   0  0  0  0  0  0  0  0  0  0  0  0
    6.9735    5.1881    1.4392 C   0  0  0  0  0  0  0  0  0  0  0  0
    4.9043    5.3359    0.0287 C   0  0  0  0  0  0  0  0  0  0  0  0
    8.7025   -2.1017    1.5601 C   0  0  0  0  0  0  0  0  0  0  0  0
    6.3198   -2.0625    0.9876 C   0  0  0  0  0  0  0  0  0  0  0  0
    6.8728    6.6873    1.7012 C   0  0  0  0  0  0  0  0  0  0  0  0
    4.7992    6.8167    0.3836 C   0  0  0  0  0  0  0  0  0  0  0  0
    8.7981   -3.5489    1.0318 C   0  0  0  0  0  0  0  0  0  0  0  0
    6.4227   -3.4588    0.3568 C   0  0  0  0  0  0  0  0  0  0  0  0
    6.1794    7.4210    0.5702 C   0  0  0  0  0  0  0  0  0  0  0  0
    7.4596   -4.2756    1.1116 C   0  0  0  0  0  0  0  0  0  0  0  0
    5.7994    3.1981    0.6577 C   0  0  0  0  0  0  0  0  0  0  0  0
    7.5141    0.0103    1.3635 C   0  0  0  0  0  0  0  0  0  0  0  0
    6.6404    0.9965    0.7551 C   0  0  0  0  0  0  0  0  0  0  0  0
    6.7051    2.2628    1.2950 C   0  0  0  0  0  0  0  0  0  0  0  0
    4.9531    1.5902   -0.8074 C   0  0  0  0  0  0  0  0  0  0  0  0
    8.3496    1.6095    2.8278 C   0  0  0  0  0  0  0  0  0  0  0  0
    3.0575    2.0854   -2.2488 C   0  0  0  0  0  0  0  0  0  0  0  0
    4.2996   -0.0805   -2.5690 C   0  0  0  0  0  0  0  0  0  0  0  0
    9.6472    3.2283    4.1316 C   0  0  0  0  0  0  0  0  0  0  0  0
    8.9505    0.9485    5.0199 C   0  0  0  0  0  0  0  0  0  0  0  0
    3.0751    2.3569   -3.7662 C   0  0  0  0  0  0  0  0  0  0  0  0
    4.9716   -1.2470   -1.8428 C   0  0  0  0  0  0  0  0  0  0  0  0
   10.1668    4.0222    2.9214 C   0  0  0  0  0  0  0  0  0  0  0  0
    9.7241    1.2617    6.3147 C   0  0  0  0  0  0  0  0  0  0  0  0
  1 33  1  0  0  0  0
  2 34  1  0  0  0  0
  3 35  1  0  0  0  0
  4 36  1  0  0  0  0
  5 13  1  0  0  0  0
  5 14  1  0  0  0  0
  5 23  1  0  0  0  0
  6 15  1  0  0  0  0
  6 16  1  0  0  0  0
  6 24  1  0  0  0  0
  7 23  2  0  0  0  0
  7 27  1  0  0  0  0
  8 24  2  0  0  0  0
  8 28  1  0  0  0  0
  9 25  1  0  0  0  0
  9 27  2  0  0  0  0
 10 26  1  0  0  0  0
 10 28  2  0  0  0  0
 11 27  1  0  0  0  0
 11 29  1  0  0  0  0
 11 30  1  0  0  0  0
 12 28  1  0  0  0  0
 12 31  1  0  0  0  0
 12 32  1  0  0  0  0
 13 17  1  0  0  0  0
 14 18  1  0  0  0  0
 15 19  1  0  0  0  0
 16 20  1  0  0  0  0
 17 21  1  0  0  0  0
 18 21  1  0  0  0  0
 19 22  1  0  0  0  0
 20 22  1  0  0  0  0
 23 26  1  0  0  0  0
 24 25  1  0  0  0  0
 25 26  2  0  0  0  0
 29 33  1  0  0  0  0
 30 34  1  0  0  0  0
 31 35  1  0  0  0  0
 32 36  1  0  0  0  0
M  END
