
 OpenBabel10141417503D

 24 26  0  0  0  0  0  0  0  0999 V2000
   -1.8389    0.2250    0.4692 C   0  0  0  0  0  0  0  0  0  0  0  0
    1.8099   -5.6222   -2.0434 C   0  0  0  0  0  0  0  0  0  0  0  0
   -0.9499    1.2569    0.1761 C   0  0  0  0  0  0  0  0  0  0  0  0
   -1.3620   -1.0724    0.6210 C   0  0  0  0  0  0  0  0  0  0  0  0
    3.0294   -5.4439   -1.3963 C   0  0  0  0  0  0  0  0  0  0  0  0
    0.9451   -4.5429   -2.1960 C   0  0  0  0  0  0  0  0  0  0  0  0
    0.4140    0.9838    0.0015 C   0  0  0  0  0  0  0  0  0  0  0  0
    0.0034   -1.3361    0.4813 C   0  0  0  0  0  0  0  0  0  0  0  0
    3.3760   -4.1869   -0.8901 C   0  0  0  0  0  0  0  0  0  0  0  0
    1.3135   -3.2784   -1.7296 C   0  0  0  0  0  0  0  0  0  0  0  0
    6.0140    1.5902    0.2529 C   0  0  0  0  0  0  0  0  0  0  0  0
    6.8047   -0.6418   -0.6122 C   0  0  0  0  0  0  0  0  0  0  0  0
    5.3025    2.6981   -0.5354 C   0  0  0  0  0  0  0  0  0  0  0  0
    7.0585   -0.5878   -2.1272 C   0  0  0  0  0  0  0  0  0  0  0  0
    0.9074   -0.3226    0.1315 C   0  0  0  0  0  0  0  0  0  0  0  0
    2.5234   -3.0799   -1.0520 C   0  0  0  0  0  0  0  0  0  0  0  0
    2.3255   -0.5948   -0.0878 C   0  0  0  0  0  0  0  0  0  0  0  0
    2.9128   -1.7615   -0.5562 C   0  0  0  0  0  0  0  0  0  0  0  0
    4.4374   -0.2404   -0.1882 C   0  0  0  0  0  0  0  0  0  0  0  0
    3.3060    0.3571    0.1469 N   0  0  0  0  0  0  0  0  0  0  0  0
    5.6985    0.2381   -0.2213 N   0  0  0  0  0  0  0  0  0  0  0  0
    5.7526    2.7238   -1.8892 O   0  0  0  0  0  0  0  0  0  0  0  0
    5.9318   -0.9838   -2.9061 O   0  0  0  0  0  0  0  0  0  0  0  0
    4.2616   -1.5300   -0.5914 O   0  0  0  0  0  0  0  0  0  0  0  0
  3  1  2  0  0  0  0
  4  1  1  0  0  0  0
  5  2  2  0  0  0  0
  6  2  1  0  0  0  0
  7  3  1  0  0  0  0
  8  4  2  0  0  0  0
  9  5  1  0  0  0  0
 10  6  2  0  0  0  0
 13 11  1  0  0  0  0
 14 12  1  0  0  0  0
 15  7  2  0  0  0  0
 15  8  1  0  0  0  0
 16  9  2  0  0  0  0
 16 10  1  0  0  0  0
 17 15  1  0  0  0  0
 18 16  1  0  0  0  0
 18 17  2  0  0  0  0
 20 17  1  0  0  0  0
 20 19  2  0  0  0  0
 21 11  1  0  0  0  0
 21 12  1  0  0  0  0
 21 19  1  0  0  0  0
 22 13  1  0  0  0  0
 23 14  1  0  0  0  0
 24 18  1  0  0  0  0
 24 19  1  0  0  0  0
M  END
