632
 OpenBabel10141417483D

 23 22  0  0  0  0  0  0  0  0999 V2000
   -0.1411   -0.3479   16.9029 O   0  0  0  0  0  0  0  0  0  0  0  0
   10.3752    0.3467    9.1562 C   0  0  0  0  0  0  0  0  0  0  0  0
   11.0794   -0.3536    8.0060 C   0  0  0  0  0  0  0  0  0  0  0  0
    9.2524   -0.3091    9.9394 C   0  0  0  0  0  0  0  0  0  0  0  0
   12.4043    0.3160    7.5514 C   0  0  0  0  0  0  0  0  0  0  0  0
    8.6725    0.6818   10.9840 C   0  0  0  0  0  0  0  0  0  0  0  0
   12.4276    1.7022    6.8598 C   0  0  0  0  0  0  0  0  0  0  0  0
    7.4885    0.0500   11.7224 C   0  0  0  0  0  0  0  0  0  0  0  0
   12.1848    2.9971    7.6598 C   0  0  0  0  0  0  0  0  0  0  0  0
    6.8831    0.9821   12.7767 C   0  0  0  0  0  0  0  0  0  0  0  0
   10.7853    3.2020    8.2096 C   0  0  0  0  0  0  0  0  0  0  0  0
    5.7471    0.3436   13.5923 C   0  0  0  0  0  0  0  0  0  0  0  0
   10.5179    4.4753    8.9850 C   0  0  0  0  0  0  0  0  0  0  0  0
    4.5083    0.0015   12.7563 C   0  0  0  0  0  0  0  0  0  0  0  0
   11.2228    4.3666   10.3507 C   0  0  0  0  0  0  0  0  0  0  0  0
    3.3600   -0.6080   13.5620 C   0  0  0  0  0  0  0  0  0  0  0  0
   10.9645    5.5247   11.2876 C   0  0  0  0  0  0  0  0  0  0  0  0
    2.7462    0.3370   14.6004 C   0  0  0  0  0  0  0  0  0  0  0  0
   11.3787    6.8278   10.6288 C   0  0  0  0  0  0  0  0  0  0  0  0
    1.7180   -0.4189   15.4301 C   0  0  0  0  0  0  0  0  0  0  0  0
   11.2481    7.9713   11.6124 C   0  0  0  0  0  0  0  0  0  0  0  0
    0.9374    0.4411   16.3973 C   0  0  0  0  0  0  0  0  0  0  0  0
   11.5389    9.2952   10.9363 C   0  0  0  0  0  0  0  0  0  0  0  0
  1 22  1  0  0  0  0
  2  3  1  0  0  0  0
  2  4  1  0  0  0  0
  3  5  1  0  0  0  0
  4  6  1  0  0  0  0
  5  7  1  0  0  0  0
  6  8  1  0  0  0  0
  7  9  1  0  0  0  0
  8 10  1  0  0  0  0
  9 11  1  0  0  0  0
 10 12  1  0  0  0  0
 11 13  1  0  0  0  0
 12 14  1  0  0  0  0
 13 15  1  0  0  0  0
 14 16  1  0  0  0  0
 15 17  1  0  0  0  0
 16 18  1  0  0  0  0
 17 19  1  0  0  0  0
 18 20  1  0  0  0  0
 19 21  1  0  0  0  0
 20 22  1  0  0  0  0
 21 23  1  0  0  0  0
M  END
