757
 OpenBabel10141417503D

 24 28  0  0  1  0  0  0  0  0999 V2000
    4.5927    1.1229   -0.4538 O   0  0  0  0  0  0  0  0  0  0  0  0
    2.3184    6.7527    1.7821 O   0  0  0  0  0  0  0  0  0  0  0  0
    6.2750   -0.3905   -0.1138 O   0  0  0  0  0  0  0  0  0  0  0  0
    3.8633    3.8132    0.3907 N   0  0  3  0  0  0  0  0  0  0  0  0
    2.0421   -1.6510    1.1813 N   0  0  0  0  0  0  0  0  0  0  0  0
    4.9447    3.8015    1.3666 C   0  0  3  0  0  0  0  0  0  0  0  0
    4.5577    4.4025   -0.7873 C   0  0  2  0  0  0  0  0  0  0  0  0
    4.4105    6.2927    0.6636 C   0  0  3  0  0  0  0  0  0  0  0  0
    5.3679    5.3319    1.5191 C   0  0  0  0  0  0  0  0  0  0  0  0
    4.2895    5.8825   -0.8602 C   0  0  0  0  0  0  0  0  0  0  0  0
    5.9948    2.8037    0.7226 C   0  0  0  0  0  0  0  0  0  0  0  0
    4.8256    3.2207   -1.6720 C   0  0  0  0  0  0  0  0  0  0  0  0
    5.5447    2.1817   -0.7002 C   0  0  3  0  0  0  0  0  0  0  0  0
    2.6591    4.5222    0.8786 C   0  0  0  0  0  0  0  0  0  0  0  0
    3.0388    5.9568    1.1922 C   0  0  0  0  0  0  0  0  0  0  0  0
    5.0884   -0.0837   -0.0619 C   0  0  0  0  0  0  0  0  0  0  0  0
    4.0476   -0.9383    0.4955 C   0  0  0  0  0  0  0  0  0  0  0  0
    4.1991   -2.2180    1.1242 C   0  0  0  0  0  0  0  0  0  0  0  0
    2.6977   -0.6280    0.5561 C   0  0  0  0  0  0  0  0  0  0  0  0
    2.9320   -2.6355    1.5384 C   0  0  0  0  0  0  0  0  0  0  0  0
    5.3000   -3.0574    1.3979 C   0  0  0  0  0  0  0  0  0  0  0  0
    2.7098   -3.8495    2.1988 C   0  0  0  0  0  0  0  0  0  0  0  0
    5.0959   -4.2736    2.0598 C   0  0  0  0  0  0  0  0  0  0  0  0
    3.8176   -4.6630    2.4504 C   0  0  0  0  0  0  0  0  0  0  0  0
  1 16  1  0  0  0  0
  1 13  1  0  0  0  0
  2 15  2  0  0  0  0
  3 16  2  0  0  0  0
  4  6  1  0  0  0  0
  4  7  1  0  0  0  0
  4 14  1  0  0  0  0
  5 19  1  0  0  0  0
  5 20  1  0  0  0  0
  6  9  1  0  0  0  0
  6 11  1  0  0  0  0
  7 10  1  6  0  0  0
  7 12  1  0  0  0  0
  8  9  1  0  0  0  0
  8 10  1  0  0  0  0
  8 15  1  0  0  0  0
 11 13  1  0  0  0  0
 12 13  1  0  0  0  0
 14 15  1  0  0  0  0
 16 17  1  0  0  0  0
 17 18  1  0  0  0  0
 17 19  2  0  0  0  0
 18 20  1  0  0  0  0
 18 21  2  0  0  0  0
 20 22  2  0  0  0  0
 21 23  1  0  0  0  0
 22 24  1  0  0  0  0
 23 24  2  0  0  0  0
M  END
