1184
 OpenBabel10141417503D

 30 34  0  0  0  0  0  0  0  0999 V2000
    4.5453   10.9993    0.7118 Cl  0  0  0  0  0  0  0  0  0  0  0  0
    9.6481    5.9594    2.4878 O   0  0  0  0  0  0  0  0  0  0  0  0
   11.5178   -1.6494   -3.4037 O   0  0  0  0  0  0  0  0  0  0  0  0
    9.8184    2.9350   -0.3277 N   0  0  0  0  0  0  0  0  0  0  0  0
    7.7218    6.0717    1.0993 N   0  0  0  0  0  0  0  0  0  0  0  0
    8.3578    7.8746    2.3093 N   0  0  0  0  0  0  0  0  0  0  0  0
   11.7882    0.1195   -1.8610 N   0  0  0  0  0  0  0  0  0  0  0  0
   12.5264   -1.9438   -1.3251 N   0  0  0  0  0  0  0  0  0  0  0  0
    7.5801    4.7228    0.5414 C   0  0  0  0  0  0  0  0  0  0  0  0
    8.1215    3.5823    1.4278 C   0  0  0  0  0  0  0  0  0  0  0  0
    8.0643    4.6226   -0.9129 C   0  0  0  0  0  0  0  0  0  0  0  0
    9.5529    3.1432    1.1024 C   0  0  0  0  0  0  0  0  0  0  0  0
    9.5091    4.1603   -1.0597 C   0  0  0  0  0  0  0  0  0  0  0  0
    9.2541    1.6841   -0.8537 C   0  0  0  0  0  0  0  0  0  0  0  0
    9.6407    1.3469   -2.3058 C   0  0  0  0  0  0  0  0  0  0  0  0
    6.8258    7.1370    0.8370 C   0  0  0  0  0  0  0  0  0  0  0  0
    8.6854    6.5516    2.0062 C   0  0  0  0  0  0  0  0  0  0  0  0
   11.1465    1.2002   -2.5737 C   0  0  0  0  0  0  0  0  0  0  0  0
    7.2202    8.2306    1.6057 C   0  0  0  0  0  0  0  0  0  0  0  0
    5.7324    7.2226   -0.0029 C   0  0  0  0  0  0  0  0  0  0  0  0
    6.5481    9.4344    1.6105 C   0  0  0  0  0  0  0  0  0  0  0  0
   12.3871    0.1855   -0.5906 C   0  0  0  0  0  0  0  0  0  0  0  0
    5.0388    8.4430   -0.0372 C   0  0  0  0  0  0  0  0  0  0  0  0
   11.8891   -1.2054   -2.3346 C   0  0  0  0  0  0  0  0  0  0  0  0
   12.8124   -1.1030   -0.2603 C   0  0  0  0  0  0  0  0  0  0  0  0
    5.4398    9.5276    0.7692 C   0  0  0  0  0  0  0  0  0  0  0  0
   12.5992    1.2373    0.2730 C   0  0  0  0  0  0  0  0  0  0  0  0
   13.4107   -1.4094    0.9415 C   0  0  0  0  0  0  0  0  0  0  0  0
   13.1975    0.9533    1.5090 C   0  0  0  0  0  0  0  0  0  0  0  0
   13.5899   -0.3587    1.8440 C   0  0  0  0  0  0  0  0  0  0  0  0
  1 26  1  0  0  0  0
  2 17  2  0  0  0  0
  3 24  2  0  0  0  0
  4 12  1  0  0  0  0
  4 13  1  0  0  0  0
  4 14  1  0  0  0  0
  5  9  1  0  0  0  0
  5 16  1  0  0  0  0
  5 17  1  0  0  0  0
  6 17  1  0  0  0  0
  6 19  1  0  0  0  0
  7 18  1  0  0  0  0
  7 22  1  0  0  0  0
  7 24  1  0  0  0  0
  8 24  1  0  0  0  0
  8 25  1  0  0  0  0
  9 10  1  0  0  0  0
  9 11  1  0  0  0  0
 10 12  1  0  0  0  0
 11 13  1  0  0  0  0
 14 15  1  0  0  0  0
 15 18  1  0  0  0  0
 16 19  2  0  0  0  0
 16 20  1  0  0  0  0
 19 21  1  0  0  0  0
 20 23  2  0  0  0  0
 21 26  2  0  0  0  0
 22 25  1  0  0  0  0
 22 27  2  0  0  0  0
 23 26  1  0  0  0  0
 25 28  2  0  0  0  0
 27 29  1  0  0  0  0
 28 30  1  0  0  0  0
 29 30  2  0  0  0  0
M  END
