988
 OpenBabel10141417503D

 11 11  0  0  0  0  0  0  0  0999 V2000
    0.5838    0.3126    0.2247 O   0  0  0  0  0  0  0  0  0  0  0  0
    1.8590    2.7023    0.1638 O   0  0  0  0  0  0  0  0  0  0  0  0
    6.1261   -3.8319    0.7887 N   0  0  0  0  0  0  0  0  0  0  0  0
    4.8732   -2.0626   -0.3897 C   0  0  0  0  0  0  0  0  0  0  0  0
    4.0642   -0.7957   -0.2393 C   0  0  0  0  0  0  0  0  0  0  0  0
    5.3551   -2.6012    0.9611 C   0  0  0  0  0  0  0  0  0  0  0  0
    2.6720   -0.8591   -0.0664 C   0  0  0  0  0  0  0  0  0  0  0  0
    4.7008    0.4578   -0.2573 C   0  0  0  0  0  0  0  0  0  0  0  0
    1.9424    0.3179    0.0664 C   0  0  0  0  0  0  0  0  0  0  0  0
    3.9594    1.6333   -0.1204 C   0  0  0  0  0  0  0  0  0  0  0  0
    2.5852    1.5528    0.0377 C   0  0  0  0  0  0  0  0  0  0  0  0
  1  9  1  0  0  0  0
  2 11  1  0  0  0  0
  3  6  1  0  0  0  0
  4  5  1  0  0  0  0
  4  6  1  0  0  0  0
  5  7  2  0  0  0  0
  5  8  1  0  0  0  0
  7  9  1  0  0  0  0
  8 10  2  0  0  0  0
  9 11  2  0  0  0  0
 10 11  1  0  0  0  0
M  END
