3162
 OpenBabel10141419013D

 20 21  0  0  1  0  0  0  0  0999 V2000
    1.3074    0.3118    0.4700 O   0  0  0  0  0  0  0  0  0  0  0  0
    1.6183   -3.3330   -0.4296 N   0  0  0  0  0  0  0  0  0  0  0  0
    0.1110    3.7098    1.1846 N   0  0  0  0  0  0  0  0  0  0  0  0
    0.5022    1.2240    1.2860 C   0  0  3  0  0  0  0  0  0  0  0  0
    0.6469    0.8805    2.7841 C   0  0  0  0  0  0  0  0  0  0  0  0
    0.9994    2.6819    1.0347 C   0  0  0  0  0  0  0  0  0  0  0  0
   -0.9608    1.1376    0.7744 C   0  0  0  0  0  0  0  0  0  0  0  0
    0.9672   -1.0849    0.5365 C   0  0  0  0  0  0  0  0  0  0  0  0
    1.9039   -1.8845   -0.3887 C   0  0  0  0  0  0  0  0  0  0  0  0
   -0.3903    1.1009    3.7058 C   0  0  0  0  0  0  0  0  0  0  0  0
    1.8423    0.3150    3.2755 C   0  0  0  0  0  0  0  0  0  0  0  0
    2.3345    2.9309    0.6960 C   0  0  0  0  0  0  0  0  0  0  0  0
   -0.2720    0.6959    5.0380 C   0  0  0  0  0  0  0  0  0  0  0  0
    1.9517   -0.1134    4.5990 C   0  0  0  0  0  0  0  0  0  0  0  0
    2.7568    4.2510    0.4878 C   0  0  0  0  0  0  0  0  0  0  0  0
    0.8903    0.0689    5.4792 C   0  0  0  0  0  0  0  0  0  0  0  0
    1.8429   -3.9841    0.8635 C   0  0  0  0  0  0  0  0  0  0  0  0
    2.3967   -3.9914   -1.4782 C   0  0  0  0  0  0  0  0  0  0  0  0
    0.5519    4.9752    0.9722 C   0  0  0  0  0  0  0  0  0  0  0  0
    1.8540    5.2862    0.6250 C   0  0  0  0  0  0  0  0  0  0  0  0
  1  4  1  0  0  0  0
  1  8  1  0  0  0  0
  2  9  1  0  0  0  0
  2 17  1  0  0  0  0
  2 18  1  0  0  0  0
  3  6  1  0  0  0  0
  3 19  2  0  0  0  0
  4  5  1  0  0  0  0
  4  6  1  0  0  0  0
  4  7  1  0  0  0  0
  5 10  2  0  0  0  0
  5 11  1  0  0  0  0
  6 12  2  0  0  0  0
  8  9  1  0  0  0  0
 10 13  1  0  0  0  0
 11 14  2  0  0  0  0
 12 15  1  0  0  0  0
 13 16  2  0  0  0  0
 14 16  1  0  0  0  0
 15 20  2  0  0  0  0
 19 20  1  0  0  0  0
M  END
