
 OpenBabel10141417513D

 32 35  0  0  1  0  0  0  0  0999 V2000
    3.4468    0.9507   -0.6218 C   0  0  2  0  0  0  0  0  0  0  0  0
    3.5023   -0.6005   -0.5323 C   0  0  2  0  0  0  0  0  0  0  0  0
    3.6062    1.4396   -2.1051 C   0  0  1  0  0  0  0  0  0  0  0  0
    2.2360    1.5258    0.1668 C   0  0  2  0  0  0  0  0  0  0  0  0
    2.2161   -1.2829   -0.0782 C   0  0  0  0  0  0  0  0  0  0  0  0
    3.8016   -1.2447   -1.9206 C   0  0  0  0  0  0  0  0  0  0  0  0
    2.7130    0.5632   -2.9933 C   0  0  0  0  0  0  0  0  0  0  0  0
    0.8714    0.8535   -0.1299 C   0  0  1  0  0  0  0  0  0  0  0  0
    1.0295   -0.6486    0.0437 C   0  0  0  0  0  0  0  0  0  0  0  0
    2.3821   -2.6419    0.1638 O   0  0  0  0  0  0  0  0  0  0  0  0
    2.9320   -0.7658   -3.0240 C   0  0  0  0  0  0  0  0  0  0  0  0
    4.6159   -2.1478   -2.1067 O   0  0  0  0  0  0  0  0  0  0  0  0
    1.7290    1.1797   -3.7449 O   0  0  0  0  0  0  0  0  0  0  0  0
   -0.3026    1.3778    0.7720 C   0  0  2  0  0  0  0  0  0  0  0  0
   -0.1841   -1.4567    0.3747 C   0  0  0  0  0  0  0  0  0  0  0  0
    2.2567   -1.6639   -3.9809 C   0  0  0  0  0  0  0  0  0  0  0  0
   -1.5768    0.6045    0.4230 C   0  0  0  0  0  0  0  0  0  0  0  0
   -1.5007   -0.7949    0.3183 C   0  0  0  0  0  0  0  0  0  0  0  0
   -0.1111   -2.6611    0.6200 O   0  0  0  0  0  0  0  0  0  0  0  0
    2.7342   -2.9298   -4.0606 N   0  0  0  0  0  0  0  0  0  0  0  0
    1.3300   -1.2669   -4.6835 O   0  0  0  0  0  0  0  0  0  0  0  0
   -2.8395    1.2036    0.2692 C   0  0  0  0  0  0  0  0  0  0  0  0
   -2.6594   -1.5659    0.1299 C   0  0  0  0  0  0  0  0  0  0  0  0
   -3.9855    0.4327    0.0477 C   0  0  0  0  0  0  0  0  0  0  0  0
   -3.8976   -0.9535   -0.0100 C   0  0  0  0  0  0  0  0  0  0  0  0
   -2.6508   -2.9336    0.0665 O   0  0  0  0  0  0  0  0  0  0  0  0
   -0.5014    2.9009    0.7543 C   0  0  0  0  0  0  0  0  0  0  0  0
    3.5485    2.9216   -2.2875 N   0  0  0  0  0  0  0  0  0  0  0  0
    3.6891    3.3238   -3.7012 C   0  0  0  0  0  0  0  0  0  0  0  0
    4.6617    3.5841   -1.5630 C   0  0  0  0  0  0  0  0  0  0  0  0
    2.1578    2.9358    0.0056 O   0  0  0  0  0  0  0  0  0  0  0  0
    4.5139   -0.9547    0.4114 O   0  0  0  0  0  0  0  0  0  0  0  0
  1  2  1  1  0  0  0
  1  3  1  0  0  0  0
  1  4  1  0  0  0  0
  2  5  1  0  0  0  0
  2  6  1  0  0  0  0
  2 32  1  6  0  0  0
  3  7  1  0  0  0  0
  3 28  1  1  0  0  0
  4  8  1  0  0  0  0
  4 31  1  6  0  0  0
  5  9  2  0  0  0  0
  5 10  1  0  0  0  0
  6 11  1  0  0  0  0
  6 12  2  0  0  0  0
  7 11  2  0  0  0  0
  7 13  1  0  0  0  0
  8 14  1  0  0  0  0
  8  9  1  1  0  0  0
  9 15  1  0  0  0  0
 11 16  1  0  0  0  0
 14 17  1  0  0  0  0
 14 27  1  6  0  0  0
 15 18  1  0  0  0  0
 15 19  2  0  0  0  0
 16 20  1  0  0  0  0
 16 21  2  0  0  0  0
 17 22  1  0  0  0  0
 17 18  2  0  0  0  0
 18 23  1  0  0  0  0
 22 24  2  0  0  0  0
 23 25  2  0  0  0  0
 23 26  1  0  0  0  0
 24 25  1  0  0  0  0
 28 29  1  0  0  0  0
 28 30  1  0  0  0  0
M  END
