
 OpenBabel10141417493D

 23 25  0  0  1  0  0  0  0  0999 V2000
   -0.6995    3.2118   -0.2535 C   0  0  1  0  0  0  0  0  0  0  0  0
   -1.8644    4.1906   -0.3122 C   0  0  0  0  0  0  0  0  0  0  0  0
    0.6526    3.8858   -0.6415 C   0  0  2  0  0  0  0  0  0  0  0  0
   -0.9969    1.9830   -1.1040 C   0  0  0  0  0  0  0  0  0  0  0  0
   -1.6367    5.5263   -0.6581 C   0  0  0  0  0  0  0  0  0  0  0  0
   -3.1992    3.8106   -0.0883 C   0  0  0  0  0  0  0  0  0  0  0  0
    0.6818    5.3579   -0.1472 C   0  0  0  0  0  0  0  0  0  0  0  0
    0.9207    3.7873   -2.1630 C   0  0  0  0  0  0  0  0  0  0  0  0
   -0.3363    1.6125   -2.2061 C   0  0  0  0  0  0  0  0  0  0  0  0
   -0.3976    6.0993   -0.7394 O   0  0  0  0  0  0  0  0  0  0  0  0
   -2.6974    6.3832   -0.9657 C   0  0  0  0  0  0  0  0  0  0  0  0
   -4.2637    4.6523   -0.4116 C   0  0  0  0  0  0  0  0  0  0  0  0
   -3.5508    2.6060    0.4587 O   0  0  0  0  0  0  0  0  0  0  0  0
    0.8704    2.3570   -2.6879 C   0  0  0  0  0  0  0  0  0  0  0  0
   -0.7992    0.4664   -3.0621 C   0  0  0  0  0  0  0  0  0  0  0  0
   -4.0204    5.9404   -0.8916 C   0  0  0  0  0  0  0  0  0  0  0  0
   -5.1518    6.8300   -1.3390 C   0  0  0  0  0  0  0  0  0  0  0  0
   -5.5318    6.5798   -2.8057 C   0  0  0  0  0  0  0  0  0  0  0  0
   -6.7045    7.4688   -3.2379 C   0  0  0  0  0  0  0  0  0  0  0  0
   -7.1040    7.2322   -4.6973 C   0  0  0  0  0  0  0  0  0  0  0  0
   -8.2654    8.1201   -5.1272 C   0  0  0  0  0  0  0  0  0  0  0  0
    0.6211    5.4792    1.3896 C   0  0  0  0  0  0  0  0  0  0  0  0
    1.9584    6.0954   -0.5980 C   0  0  0  0  0  0  0  0  0  0  0  0
  1  2  1  1  0  0  0
  1  3  1  0  0  0  0
  1  4  1  0  0  0  0
  2  5  2  0  0  0  0
  2  6  1  0  0  0  0
  3  7  1  6  0  0  0
  3  8  1  0  0  0  0
  4  9  2  0  0  0  0
  5 10  1  0  0  0  0
  5 11  1  0  0  0  0
  6 12  2  0  0  0  0
  6 13  1  0  0  0  0
  7 10  1  0  0  0  0
  7 22  1  0  0  0  0
  7 23  1  0  0  0  0
  8 14  1  0  0  0  0
  9 15  1  0  0  0  0
  9 14  1  0  0  0  0
 11 16  2  0  0  0  0
 12 16  1  0  0  0  0
 16 17  1  0  0  0  0
 17 18  1  0  0  0  0
 18 19  1  0  0  0  0
 19 20  1  0  0  0  0
 20 21  1  0  0  0  0
M  END
