
 OpenBabel10141417493D

 22 25  0  0  1  0  0  0  0  0999 V2000
   -1.1958    0.9677   -0.1028 C   0  0  0  0  0  0  0  0  0  0  0  0
    0.9455   -1.3139    0.9587 C   0  0  0  0  0  0  0  0  0  0  0  0
   -3.4354    1.0760    0.6481 C   0  0  1  0  0  0  0  0  0  0  0  0
   -3.3913   -1.1184    1.9368 C   0  0  0  0  0  0  0  0  0  0  0  0
   -2.6282    0.8521   -0.6127 C   0  0  0  0  0  0  0  0  0  0  0  0
   -0.6514   -3.1348    2.7804 C   0  0  2  0  0  0  0  0  0  0  0  0
   -2.7651   -2.3355    1.2764 C   0  0  0  0  0  0  0  0  0  0  0  0
    1.5790   -1.7634    2.2635 C   0  0  0  0  0  0  0  0  0  0  0  0
    0.7017   -2.4791    3.3046 C   0  0  1  0  0  0  0  0  0  0  0  0
   -1.6967   -3.3256    3.9393 C   0  0  0  0  0  0  0  0  0  0  0  0
    0.6446   -1.5726    4.5568 C   0  0  0  0  0  0  0  0  0  0  0  0
   -1.7735   -2.0867    4.8117 C   0  0  2  0  0  0  0  0  0  0  0  0
   -0.5810   -1.2417    0.8928 C   0  0  2  0  0  0  0  0  0  0  0  0
   -1.2506   -2.4810    1.4646 C   0  0  1  0  0  0  0  0  0  0  0  0
   -2.6762    0.2508    1.7455 C   0  0  2  0  0  0  0  0  0  0  0  0
   -2.7561    1.0391    3.0805 C   0  0  0  0  0  0  0  0  0  0  0  0
   -1.1845    0.1545    1.2280 C   0  0  1  0  0  0  0  0  0  0  0  0
   -0.2492   -2.2671    6.6766 O   0  0  0  0  0  0  0  0  0  0  0  0
   -0.4422   -2.0025    5.4889 C   0  0  0  0  0  0  0  0  0  0  0  0
   -0.2716   -4.5989    2.3541 C   0  0  0  0  0  0  0  0  0  0  0  0
   -3.4809    2.4798    0.9129 O   0  0  0  0  0  0  0  0  0  0  0  0
   -2.9474   -1.9710    5.7603 C   0  0  0  0  0  0  0  0  0  0  0  0
  2  8  1  0  0  0  0
  3  5  1  0  0  0  0
  3 21  1  1  0  0  0
  4  7  1  0  0  0  0
  5  1  1  0  0  0  0
  6  9  1  0  0  0  0
  6 10  1  0  0  0  0
  6 20  1  1  0  0  0
  8  9  1  0  0  0  0
  9 11  1  1  0  0  0
 10 12  1  0  0  0  0
 11 19  1  0  0  0  0
 12 19  1  0  0  0  0
 12 22  1  1  0  0  0
 13 14  1  0  0  0  0
 13  2  1  6  0  0  0
 14  6  1  0  0  0  0
 14  7  1  1  0  0  0
 15  3  1  0  0  0  0
 15  4  1  0  0  0  0
 15 16  1  1  0  0  0
 17 13  1  0  0  0  0
 17 15  1  0  0  0  0
 17  1  1  1  0  0  0
 19 18  2  0  0  0  0
M  END
