651
 OpenBabel10141417483D

 18 19  0  0  1  0  0  0  0  0999 V2000
    4.5042    3.1271   -2.0424 O   0  0  0  0  0  0  0  0  0  0  0  0
    1.8125    4.1074   -2.8723 O   0  0  0  0  0  0  0  0  0  0  0  0
    4.8738   -0.2493   -0.6487 O   0  0  0  0  0  0  0  0  0  0  0  0
    0.3940    3.2831   -7.2072 O   0  0  0  0  0  0  0  0  0  0  0  0
    2.3432    1.1564   -2.7066 N   0  0  0  0  0  0  0  0  0  0  0  0
    1.1117    1.4998   -5.9517 N   0  0  0  0  0  0  0  0  0  0  0  0
    1.0784    3.7163   -5.0476 N   0  0  0  0  0  0  0  0  0  0  0  0
    1.9065   -0.2126   -4.4086 N   0  0  0  0  0  0  0  0  0  0  0  0
    1.8564    1.9379   -3.7194 C   0  0  0  0  0  0  0  0  0  0  0  0
    2.7181    1.5653   -1.3662 C   0  0  0  0  0  0  0  0  0  0  0  0
    1.6169    1.0730   -4.7484 C   0  0  0  0  0  0  0  0  0  0  0  0
    4.1823    2.0109   -1.2104 C   0  0  3  0  0  0  0  0  0  0  0  0
    1.5987    3.3331   -3.8081 C   0  0  0  0  0  0  0  0  0  0  0  0
    2.3171   -0.1391   -3.1594 C   0  0  0  0  0  0  0  0  0  0  0  0
    0.8378    2.8547   -6.1378 C   0  0  0  0  0  0  0  0  0  0  0  0
    5.1790    0.8745   -1.4678 C   0  0  0  0  0  0  0  0  0  0  0  0
    0.8737    0.5792   -7.0465 C   0  0  0  0  0  0  0  0  0  0  0  0
    0.7465    5.1123   -5.2564 C   0  0  0  0  0  0  0  0  0  0  0  0
  1 12  1  0  0  0  0
  2 13  2  0  0  0  0
  3 16  1  0  0  0  0
  4 15  2  0  0  0  0
  5  9  1  0  0  0  0
  5 10  1  0  0  0  0
  5 14  1  0  0  0  0
  6 11  1  0  0  0  0
  6 15  1  0  0  0  0
  6 17  1  0  0  0  0
  7 13  1  0  0  0  0
  7 15  1  0  0  0  0
  7 18  1  0  0  0  0
  8 11  1  0  0  0  0
  8 14  2  0  0  0  0
  9 11  2  0  0  0  0
  9 13  1  0  0  0  0
 10 12  1  0  0  0  0
 12 16  1  0  0  0  0
M  END
