1057
 OpenBabel10141417523D

 15 14  0  0  0  0  0  0  0  0999 V2000
    0.8066   -0.4908    0.2289 S   0  0  0  0  0  0  0  0  0  0  0  0
    0.3046    1.5163    0.5141 P   0  0  0  0  0  0  0  0  0  0  0  0
    0.1888    2.2084   -0.9453 O   0  0  0  0  0  0  0  0  0  0  0  0
   -1.1919    1.6480    1.0957 O   0  0  0  0  0  0  0  0  0  0  0  0
    1.3569    2.1765    1.3509 O   0  0  0  0  0  0  0  0  0  0  0  0
    4.6755    0.3770   -1.0795 N   0  3  0  0  0  0  0  0  0  0  0  0
    3.1369    0.3589   -0.9530 C   0  0  0  0  0  0  0  0  0  0  0  0
    5.0360    1.2535   -2.2849 C   0  0  0  0  0  0  0  0  0  0  0  0
    5.3207    0.9864    0.1610 C   0  0  0  0  0  0  0  0  0  0  0  0
    5.2306   -1.0195   -1.3296 C   0  0  0  0  0  0  0  0  0  0  0  0
    2.6154   -0.4681    0.2293 C   0  0  0  0  0  0  0  0  0  0  0  0
   -0.1366    3.5897   -0.9920 C   0  0  0  0  0  0  0  0  0  0  0  0
   -1.4473    1.0472    2.3545 C   0  0  0  0  0  0  0  0  0  0  0  0
   -0.2343    4.0159   -2.4453 C   0  0  0  0  0  0  0  0  0  0  0  0
   -2.9022    1.2639    2.7053 C   0  0  0  0  0  0  0  0  0  0  0  0
  1  2  1  0  0  0  0
  1 11  1  0  0  0  0
  2  3  1  0  0  0  0
  2  4  1  0  0  0  0
  2  5  2  0  0  0  0
  3 12  1  0  0  0  0
  4 13  1  0  0  0  0
  6  7  1  0  0  0  0
  6  8  1  0  0  0  0
  6  9  1  0  0  0  0
  6 10  1  0  0  0  0
  7 11  1  0  0  0  0
 12 14  1  0  0  0  0
 13 15  1  0  0  0  0
M  CHG  1   6   1
M  END
