1084
 OpenBabel10141417513D

 22 24  0  0  1  0  0  0  0  0999 V2000
    0.6455   -1.2051    1.0708 O   0  0  0  0  0  0  0  0  0  0  0  0
   -0.3945    3.5882    0.1060 N   0  0  0  0  0  0  0  0  0  0  0  0
    2.3264    5.0342   -0.8768 N   0  0  0  0  0  0  0  0  0  0  0  0
   -1.2064    1.9221    1.7332 N   0  0  0  0  0  0  0  0  0  0  0  0
   -1.3770    4.0707    2.2151 N   0  0  0  0  0  0  0  0  0  0  0  0
   -0.6859    4.9644   -0.3426 C   0  0  0  0  0  0  0  0  0  0  0  0
    0.8311    3.0353   -0.4742 C   0  0  0  0  0  0  0  0  0  0  0  0
    0.2277    5.9999    0.3054 C   0  0  0  0  0  0  0  0  0  0  0  0
    2.1295    3.7973   -0.0982 C   0  0  0  0  0  0  0  0  0  0  0  0
    1.5792    6.2007   -0.3860 C   0  0  0  0  0  0  0  0  0  0  0  0
   -0.9236    3.2207    1.3205 C   0  0  0  0  0  0  0  0  0  0  0  0
   -1.8869    1.9883    2.9420 C   0  0  0  0  0  0  0  0  0  0  0  0
   -0.9011    0.6575    1.0989 C   0  0  0  0  0  0  0  0  0  0  0  0
   -1.9518    3.3429    3.2224 C   0  0  0  0  0  0  0  0  0  0  0  0
    3.7490    5.3764   -0.9886 C   0  0  0  0  0  0  0  0  0  0  0  0
    0.3694    0.0527    1.6897 C   0  0  0  0  0  0  0  0  0  0  0  0
   -2.4267    1.0154    3.8008 C   0  0  0  0  0  0  0  0  0  0  0  0
   -2.5588    3.7761    4.4107 C   0  0  0  0  0  0  0  0  0  0  0  0
   -3.0257    1.4636    4.9845 C   0  0  0  0  0  0  0  0  0  0  0  0
   -3.0891    2.8229    5.2893 C   0  0  0  0  0  0  0  0  0  0  0  0
    1.8402   -1.7838    1.5985 C   0  0  0  0  0  0  0  0  0  0  0  0
    2.0897   -3.1120    0.9137 C   0  0  0  0  0  0  0  0  0  0  0  0
  1 16  1  0  0  0  0
  1 21  1  0  0  0  0
  2  6  1  0  0  0  0
  2  7  1  0  0  0  0
  2 11  1  0  0  0  0
  3  9  1  0  0  0  0
  3 10  1  0  0  0  0
  3 15  1  0  0  0  0
  4 11  1  0  0  0  0
  4 12  1  0  0  0  0
  4 13  1  0  0  0  0
  5 11  2  0  0  0  0
  5 14  1  0  0  0  0
  6  8  1  0  0  0  0
  7  9  1  0  0  0  0
  8 10  1  0  0  0  0
 12 14  1  0  0  0  0
 12 17  2  0  0  0  0
 13 16  1  0  0  0  0
 14 18  2  0  0  0  0
 17 19  1  0  0  0  0
 18 20  1  0  0  0  0
 19 20  2  0  0  0  0
 21 22  1  0  0  0  0
M  END
