879
 OpenBabel10141417493D

 16 17  0  0  1  0  0  0  0  0999 V2000
   -0.5365   -0.6777    1.5177 S   0  0  0  0  0  0  0  0  0  0  0  0
    1.3754   -0.3117   -5.1309 F   0  0  0  0  0  0  0  0  0  0  0  0
   -0.2576    0.8685   -0.6408 O   0  0  0  0  0  0  0  0  0  0  0  0
   -2.7215   -0.6188   -0.7797 O   0  0  0  0  0  0  0  0  0  0  0  0
    3.7242    0.2135   -0.3554 O   0  0  0  0  0  0  0  0  0  0  0  0
    1.7924    0.1456   -1.5748 N   0  0  0  0  0  0  0  0  0  0  0  0
    3.9479    0.0473   -2.6056 N   0  0  0  0  0  0  0  0  0  0  0  0
    4.1731   -0.1431   -4.8666 N   0  0  0  0  0  0  0  0  0  0  0  0
    1.0171    0.2753   -0.3463 C   0  0  2  0  0  0  0  0  0  0  0  0
    0.7756   -1.0666    0.3480 C   0  0  0  0  0  0  0  0  0  0  0  0
   -1.1070    0.7197    0.5066 C   0  0  1  0  0  0  0  0  0  0  0  0
   -2.5609    0.5430    0.0411 C   0  0  0  0  0  0  0  0  0  0  0  0
    1.1716   -0.0344   -2.7945 C   0  0  0  0  0  0  0  0  0  0  0  0
    3.1888    0.1414   -1.4578 C   0  0  0  0  0  0  0  0  0  0  0  0
    1.8938   -0.1414   -3.9031 C   0  0  0  0  0  0  0  0  0  0  0  0
    3.3654   -0.0706   -3.7616 C   0  0  0  0  0  0  0  0  0  0  0  0
  1 10  1  0  0  0  0
  1 11  1  0  0  0  0
  2 15  1  0  0  0  0
  3  9  1  0  0  0  0
  3 11  1  0  0  0  0
  4 12  1  0  0  0  0
  5 14  2  0  0  0  0
  6 13  1  0  0  0  0
  6 14  1  0  0  0  0
  7 14  1  0  0  0  0
  7 16  2  0  0  0  0
  8 16  1  0  0  0  0
  9  6  1  6  0  0  0
  9 10  1  0  0  0  0
 11 12  1  6  0  0  0
 13 15  2  0  0  0  0
 15 16  1  0  0  0  0
M  END
