228
 OpenBabel10141417483D

 10  9  0  0  1  0  0  0  0  0999 V2000
    0.1260    0.2692   -0.6743 Cl  0  0  0  0  0  0  0  0  0  0  0  0
    3.0371   -0.0337    1.9890 F   0  0  0  0  0  0  0  0  0  0  0  0
    2.2070   -1.5371    0.6398 F   0  0  0  0  0  0  0  0  0  0  0  0
    0.3314    0.2102    1.8763 F   0  0  0  0  0  0  0  0  0  0  0  0
    5.1799   -0.1306   -1.2998 F   0  0  0  0  0  0  0  0  0  0  0  0
    5.1354   -0.4469    0.8449 F   0  0  0  0  0  0  0  0  0  0  0  0
    3.2845    0.2456   -0.2205 O   0  0  0  0  0  0  0  0  0  0  0  0
    2.4122   -0.2049    0.7974 C   0  0  0  0  0  0  0  0  0  0  0  0
    1.0888    0.5695    0.8013 C   0  0  3  0  0  0  0  0  0  0  0  0
    4.4084   -0.5923   -0.2862 C   0  0  0  0  0  0  0  0  0  0  0  0
  1  9  1  0  0  0  0
  2  8  1  0  0  0  0
  3  8  1  0  0  0  0
  4  9  1  0  0  0  0
  5 10  1  0  0  0  0
  6 10  1  0  0  0  0
  7  8  1  0  0  0  0
  7 10  1  0  0  0  0
  8  9  1  0  0  0  0
M  END
