467
 OpenBabel10141417483D

 23 25  0  0  0  0  0  0  0  0999 V2000
    0.4723   -2.2399   -0.3442 F   0  0  0  0  0  0  0  0  0  0  0  0
    5.1453   -4.0375   -0.4951 O   0  0  0  0  0  0  0  0  0  0  0  0
    7.6877   -4.3106   -0.3437 O   0  0  0  0  0  0  0  0  0  0  0  0
    8.9375   -2.4767    0.0442 O   0  0  0  0  0  0  0  0  0  0  0  0
    0.7453    0.5657    0.1041 N   0  0  0  0  0  0  0  0  0  0  0  0
   -1.0176    2.8251   -0.5731 N   0  0  0  0  0  0  0  0  0  0  0  0
    5.4961   -0.0660    0.2100 N   0  0  0  0  0  0  0  0  0  0  0  0
    3.1055    0.2115    0.1156 N   0  0  0  0  0  0  0  0  0  0  0  0
    1.1237    1.9562    0.4376 C   0  0  0  0  0  0  0  0  0  0  0  0
   -0.2540    0.4476   -0.9803 C   0  0  0  0  0  0  0  0  0  0  0  0
   -0.1198    2.8586    0.5980 C   0  0  0  0  0  0  0  0  0  0  0  0
   -1.4339    1.4263   -0.7813 C   0  0  0  0  0  0  0  0  0  0  0  0
    1.8523   -0.3019   -0.0280 C   0  0  0  0  0  0  0  0  0  0  0  0
    4.1954   -0.5948    0.0332 C   0  0  0  0  0  0  0  0  0  0  0  0
    4.0534   -1.9635   -0.2110 C   0  0  0  0  0  0  0  0  0  0  0  0
    1.6867   -1.6780   -0.2543 C   0  0  0  0  0  0  0  0  0  0  0  0
    2.7866   -2.5136   -0.3587 C   0  0  0  0  0  0  0  0  0  0  0  0
    5.5913    1.3682    0.5127 C   0  0  0  0  0  0  0  0  0  0  0  0
    5.2455   -2.8301   -0.2838 C   0  0  0  0  0  0  0  0  0  0  0  0
    6.6025   -0.8981    0.1349 C   0  0  0  0  0  0  0  0  0  0  0  0
    6.5764   -2.2205   -0.0910 C   0  0  0  0  0  0  0  0  0  0  0  0
    5.7452    2.1913   -0.7577 C   0  0  0  0  0  0  0  0  0  0  0  0
    7.8382   -2.9881   -0.1215 C   0  0  0  0  0  0  0  0  0  0  0  0
  1 16  1  0  0  0  0
  2 19  2  0  0  0  0
  3 23  1  0  0  0  0
  4 23  2  0  0  0  0
  5  9  1  0  0  0  0
  5 10  1  0  0  0  0
  5 13  1  0  0  0  0
  6 11  1  0  0  0  0
  6 12  1  0  0  0  0
  7 14  1  0  0  0  0
  7 18  1  0  0  0  0
  7 20  1  0  0  0  0
  8 13  1  0  0  0  0
  8 14  2  0  0  0  0
  9 11  1  0  0  0  0
 10 12  1  0  0  0  0
 13 16  2  0  0  0  0
 14 15  1  0  0  0  0
 15 17  2  0  0  0  0
 15 19  1  0  0  0  0
 16 17  1  0  0  0  0
 18 22  1  0  0  0  0
 19 21  1  0  0  0  0
 20 21  2  0  0  0  0
 21 23  1  0  0  0  0
M  END
