
 OpenBabel10141417493D

 32 34  0  0  0  0  0  0  0  0999 V2000
   -0.7759   -0.9384   -0.2854 C   0  0  0  0  0  0  0  0  0  0  0  0
    0.6634   -0.9665    0.0124 N   0  0  0  0  0  0  0  0  0  0  0  0
    1.2101    0.3547   -0.0968 C   0  0  0  0  0  0  0  0  0  0  0  0
    0.1355    1.2394   -0.1513 N   0  0  0  0  0  0  0  0  0  0  0  0
   -1.0621    0.5623   -0.1269 C   0  0  0  0  0  0  0  0  0  0  0  0
    0.1918    2.6504   -0.2494 C   0  0  0  0  0  0  0  0  0  0  0  0
   -0.4771    3.4482    0.6834 C   0  0  0  0  0  0  0  0  0  0  0  0
    0.8823    3.2684   -1.3003 C   0  0  0  0  0  0  0  0  0  0  0  0
    0.9187    4.6714   -1.4272 C   0  0  0  0  0  0  0  0  0  0  0  0
    0.2604    5.4592   -0.4680 C   0  0  0  0  0  0  0  0  0  0  0  0
   -0.4301    4.8424    0.5842 C   0  0  0  0  0  0  0  0  0  0  0  0
   -2.1861    1.0538   -0.1375 O   0  0  0  0  0  0  0  0  0  0  0  0
    0.2735    6.8982   -0.5365 C   0  0  0  0  0  0  0  0  0  0  0  0
    0.2828    8.0511   -0.5868 N   0  0  0  0  0  0  0  0  0  0  0  0
    1.6557    5.3038   -2.5829 C   0  0  0  0  0  0  0  0  0  0  0  0
    2.2198    4.3913   -3.4227 F   0  0  0  0  0  0  0  0  0  0  0  0
    0.8442    6.0664   -3.3626 F   0  0  0  0  0  0  0  0  0  0  0  0
    2.6710    6.1083   -2.1736 F   0  0  0  0  0  0  0  0  0  0  0  0
    2.8327    0.7848   -0.1539 S   0  0  0  0  0  0  0  0  0  0  0  0
   -1.0905   -1.2571   -1.7580 C   0  0  0  0  0  0  0  0  0  0  0  0
   -1.6715   -1.7096    0.6851 C   0  0  0  0  0  0  0  0  0  0  0  0
    1.3913   -2.1678    0.2978 C   0  0  0  0  0  0  0  0  0  0  0  0
    2.4894   -2.1628    1.1655 C   0  0  0  0  0  0  0  0  0  0  0  0
    3.2354   -3.3183    1.4029 C   0  0  0  0  0  0  0  0  0  0  0  0
    2.9100   -4.5304    0.8034 C   0  0  0  0  0  0  0  0  0  0  0  0
    1.7830   -4.5690   -0.0201 C   0  0  0  0  0  0  0  0  0  0  0  0
    1.0328   -3.4035   -0.2566 C   0  0  0  0  0  0  0  0  0  0  0  0
    3.7235   -5.7628    1.0065 C   0  0  0  0  0  0  0  0  0  0  0  0
    4.8113   -5.6480    1.8424 N   0  0  0  0  0  0  0  0  0  0  0  0
    5.7045   -6.7411    2.1079 C   0  0  0  0  0  0  0  0  0  0  0  0
    3.4172   -6.8057    0.4393 O   0  0  0  0  0  0  0  0  0  0  0  0
    4.2826   -3.2157    2.2370 F   0  0  0  0  0  0  0  0  0  0  0  0
  1  2  1  0  0  0  0
  1  5  1  0  0  0  0
  1 20  1  0  0  0  0
  1 21  1  0  0  0  0
  2  3  1  0  0  0  0
  2 22  1  0  0  0  0
  3  4  1  0  0  0  0
  3 19  2  0  0  0  0
  4  5  1  0  0  0  0
  4  6  1  0  0  0  0
  5 12  2  0  0  0  0
  6  8  1  0  0  0  0
  7  6  2  0  0  0  0
  7 11  1  0  0  0  0
  8  9  2  0  0  0  0
  9 10  1  0  0  0  0
  9 15  1  0  0  0  0
 10 11  2  0  0  0  0
 10 13  1  0  0  0  0
 13 14  3  0  0  0  0
 15 16  1  0  0  0  0
 15 17  1  0  0  0  0
 15 18  1  0  0  0  0
 22 23  2  0  0  0  0
 22 27  1  0  0  0  0
 23 24  1  0  0  0  0
 24 25  2  0  0  0  0
 24 32  1  0  0  0  0
 25 26  1  0  0  0  0
 25 28  1  0  0  0  0
 26 27  2  0  0  0  0
 28 29  1  0  0  0  0
 28 31  2  0  0  0  0
 29 30  1  0  0  0  0
M  END
