751
 OpenBabel10141417493D

 19 22  0  0  1  0  0  0  0  0999 V2000
    0.3041    1.8648   -0.1028 N   0  0  0  0  0  0  0  0  0  0  0  0
   -0.6770    3.9395   -0.2919 N   0  0  0  0  0  0  0  0  0  0  0  0
    0.7538    3.5998    1.4628 N   0  0  0  0  0  0  0  0  0  0  0  0
   -0.7234    1.6444   -1.1128 C   0  0  3  0  0  0  0  0  0  0  0  0
   -1.7352    0.6797   -0.5265 C   0  0  0  0  0  0  0  0  0  0  0  0
   -1.1669    3.0914   -1.4143 C   0  0  0  0  0  0  0  0  0  0  0  0
    1.3142    0.9009    0.1004 C   0  0  0  0  0  0  0  0  0  0  0  0
   -1.3527   -0.6767   -0.4624 C   0  0  0  0  0  0  0  0  0  0  0  0
   -0.0012   -1.0918   -0.9990 C   0  0  0  0  0  0  0  0  0  0  0  0
    1.2113   -0.4595   -0.3216 C   0  0  0  0  0  0  0  0  0  0  0  0
    0.1543    3.1534    0.3352 C   0  0  0  0  0  0  0  0  0  0  0  0
   -2.9481    1.0709    0.0573 C   0  0  0  0  0  0  0  0  0  0  0  0
   -2.2139   -1.6210    0.1143 C   0  0  0  0  0  0  0  0  0  0  0  0
    2.5275    1.2745    0.7193 C   0  0  0  0  0  0  0  0  0  0  0  0
    2.3237   -1.3266   -0.1782 C   0  0  0  0  0  0  0  0  0  0  0  0
   -3.7907    0.1244    0.6442 C   0  0  0  0  0  0  0  0  0  0  0  0
   -3.4301   -1.2202    0.6623 C   0  0  0  0  0  0  0  0  0  0  0  0
    3.6022    0.3930    0.8805 C   0  0  0  0  0  0  0  0  0  0  0  0
    3.5066   -0.9059    0.4159 C   0  0  0  0  0  0  0  0  0  0  0  0
  1  4  1  0  0  0  0
  1  7  1  0  0  0  0
  1 11  1  0  0  0  0
  2  6  1  0  0  0  0
  2 11  2  0  0  0  0
  3 11  1  0  0  0  0
  4  5  1  0  0  0  0
  4  6  1  0  0  0  0
  5  8  1  0  0  0  0
  5 12  2  0  0  0  0
  7 10  1  0  0  0  0
  7 14  2  0  0  0  0
  8  9  1  0  0  0  0
  8 13  2  0  0  0  0
  9 10  1  0  0  0  0
 10 15  2  0  0  0  0
 12 16  1  0  0  0  0
 13 17  1  0  0  0  0
 14 18  1  0  0  0  0
 15 19  1  0  0  0  0
 16 17  2  0  0  0  0
 18 19  2  0  0  0  0
M  END
