696
 OpenBabel10141417483D

 43 50  0  0  1  0  0  0  0  0999 V2000
    4.0825   -4.3078   16.3698 O   0  0  0  0  0  0  0  0  0  0  0  0
    5.8821   -3.6665   15.0572 O   0  0  0  0  0  0  0  0  0  0  0  0
    3.2970   -1.1220   12.0254 O   0  0  0  0  0  0  0  0  0  0  0  0
    3.0731   -0.9936   17.0706 O   0  0  0  0  0  0  0  0  0  0  0  0
    6.3250   -3.8236   17.6966 O   0  0  0  0  0  0  0  0  0  0  0  0
    3.6210   -3.2092   12.8656 N   0  0  0  0  0  0  0  0  0  0  0  0
    4.1755   -2.2046   15.4245 N   0  0  0  0  0  0  0  0  0  0  0  0
    4.2492   -3.4837   18.5940 N   0  0  0  0  0  0  0  0  0  0  0  0
    8.7033   -2.9818   20.0096 N   0  0  0  0  0  0  0  0  0  0  0  0
    8.6726    2.8097   21.5195 N   0  0  0  0  0  0  0  0  0  0  0  0
    3.7354   -4.1397   13.9839 C   0  0  2  0  0  0  0  0  0  0  0  0
    4.4905   -3.5732   15.2104 C   0  0  2  0  0  0  0  0  0  0  0  0
    4.3483   -5.3775   13.3230 C   0  0  0  0  0  0  0  0  0  0  0  0
    4.0939   -1.2357   14.3205 C   0  0  2  0  0  0  0  0  0  0  0  0
    3.5927   -3.8929   11.5885 C   0  0  0  0  0  0  0  0  0  0  0  0
    3.7060   -5.3740   11.9344 C   0  0  0  0  0  0  0  0  0  0  0  0
    3.5372   -3.3943   17.3242 C   0  0  1  0  0  0  0  0  0  0  0  0
    3.5835   -1.8398   12.9841 C   0  0  0  0  0  0  0  0  0  0  0  0
    3.5587   -2.0156   16.6453 C   0  0  0  0  0  0  0  0  0  0  0  0
    5.4279   -0.5171   14.0055 C   0  0  0  0  0  0  0  0  0  0  0  0
    2.0733   -3.7936   17.5283 C   0  0  0  0  0  0  0  0  0  0  0  0
    6.1875   -3.6634   20.1241 C   0  0  1  0  0  0  0  0  0  0  0  0
    8.1841   -1.5906   20.0441 C   0  0  1  0  0  0  0  0  0  0  0  0
    5.6183   -3.6446   18.6878 C   0  0  0  0  0  0  0  0  0  0  0  0
    5.9969    0.3005   15.1409 C   0  0  0  0  0  0  0  0  0  0  0  0
    7.6869   -4.0442   20.1252 C   0  0  0  0  0  0  0  0  0  0  0  0
    6.8969   -1.4102   20.9000 C   0  0  0  0  0  0  0  0  0  0  0  0
    9.3784   -0.6067   20.3393 C   0  0  0  0  0  0  0  0  0  0  0  0
    5.9542   -2.3724   20.8604 C   0  0  0  0  0  0  0  0  0  0  0  0
    6.6548   -0.1187   21.5934 C   0  0  0  0  0  0  0  0  0  0  0  0
    8.9212    0.7226   20.8111 C   0  0  0  0  0  0  0  0  0  0  0  0
    7.6587    0.8436   21.4213 C   0  0  0  0  0  0  0  0  0  0  0  0
    9.5852   -3.2200   18.8623 C   0  0  0  0  0  0  0  0  0  0  0  0
    6.9466   -0.2554   16.0023 C   0  0  0  0  0  0  0  0  0  0  0  0
    5.5895    1.6270   15.3517 C   0  0  0  0  0  0  0  0  0  0  0  0
    7.5418    2.1319   21.9212 C   0  0  0  0  0  0  0  0  0  0  0  0
    9.5257    1.9580   20.8541 C   0  0  0  0  0  0  0  0  0  0  0  0
    5.5570    0.2612   22.3795 C   0  0  0  0  0  0  0  0  0  0  0  0
    6.4386    2.5286   22.6767 C   0  0  0  0  0  0  0  0  0  0  0  0
    7.4610    0.4982   17.0563 C   0  0  0  0  0  0  0  0  0  0  0  0
    6.0862    2.3636   16.4314 C   0  0  0  0  0  0  0  0  0  0  0  0
    5.4588    1.5552   22.9144 C   0  0  0  0  0  0  0  0  0  0  0  0
    7.0131    1.7924   17.2948 C   0  0  0  0  0  0  0  0  0  0  0  0
  1 12  1  0  0  0  0
  1 17  1  0  0  0  0
  3 18  2  0  0  0  0
  4 19  2  0  0  0  0
  5 24  2  0  0  0  0
  6 15  1  0  0  0  0
  6 18  1  0  0  0  0
  7 12  1  0  0  0  0
  7 14  1  0  0  0  0
  7 19  1  0  0  0  0
  8 24  1  0  0  0  0
  9 26  1  0  0  0  0
  9 33  1  0  0  0  0
 10 36  1  0  0  0  0
 10 37  1  0  0  0  0
 11  6  1  6  0  0  0
 11 12  1  0  0  0  0
 11 13  1  0  0  0  0
 12  2  1  6  0  0  0
 13 16  1  0  0  0  0
 14 18  1  0  0  0  0
 14 20  1  6  0  0  0
 15 16  1  0  0  0  0
 17 19  1  0  0  0  0
 17 21  1  1  0  0  0
 17  8  1  0  0  0  0
 20 25  1  0  0  0  0
 22 24  1  6  0  0  0
 22 26  1  0  0  0  0
 22 29  1  0  0  0  0
 23  9  1  1  0  0  0
 23 27  1  0  0  0  0
 23 28  1  0  0  0  0
 25 34  2  0  0  0  0
 25 35  1  0  0  0  0
 27 29  2  0  0  0  0
 27 30  1  0  0  0  0
 28 31  1  0  0  0  0
 30 32  2  0  0  0  0
 30 38  1  0  0  0  0
 31 32  1  0  0  0  0
 31 37  2  0  0  0  0
 32 36  1  0  0  0  0
 34 40  1  0  0  0  0
 35 41  2  0  0  0  0
 36 39  2  0  0  0  0
 38 42  2  0  0  0  0
 39 42  1  0  0  0  0
 40 43  2  0  0  0  0
 41 43  1  0  0  0  0
M  END
