
 OpenBabel10141417503D

 52 60  0  0  0  0  0  0  0  0999 V2000
   -2.2189    2.1523   -1.6119 C   0  0  1  0  0  0  0  0  0  0  0  0
   -3.2789    2.4074   -2.7067 C   0  0  2  0  0  0  0  0  0  0  0  0
   -2.6260    3.1697   -3.7514 O   0  0  0  0  0  0  0  0  0  0  0  0
   -1.2079    3.2048   -3.5022 C   0  0  2  0  0  0  0  0  0  0  0  0
   -0.9754    2.0456   -2.5043 C   0  0  2  0  0  0  0  0  0  0  0  0
   -2.2366    3.2511   -0.7041 O   0  0  0  0  0  0  0  0  0  0  0  0
   -1.4523    3.1351    0.4671 C   0  0  0  0  0  0  0  0  0  0  0  0
   -4.5385    3.1600   -2.2657 C   0  0  0  0  0  0  0  0  0  0  0  0
   -5.5446    3.3712   -3.4147 C   0  0  1  0  0  0  0  0  0  0  0  0
   -6.7909    4.1280   -2.8995 C   0  0  0  0  0  0  0  0  0  0  0  0
   -7.8023    4.3583   -3.9342 N   0  0  0  0  0  0  0  0  0  0  0  0
   -4.9576    4.1187   -4.4824 O   0  0  0  0  0  0  0  0  0  0  0  0
    0.4064    1.9857   -1.8628 C   0  0  0  0  0  0  0  0  0  0  0  0
    0.5657    0.8964   -0.7895 C   0  0  0  0  0  0  0  0  0  0  0  0
    1.8766    0.8042    0.0016 C   0  0  0  0  0  0  0  0  0  0  0  0
   -0.3053    0.0436   -0.6127 O   0  0  0  0  0  0  0  0  0  0  0  0
    2.2135    2.0625    0.8116 C   0  0  3  0  0  0  0  0  0  0  0  0
    3.4831    1.9396    1.6802 C   0  0  0  0  0  0  0  0  0  0  0  0
    2.2636    3.1333   -0.1104 O   0  0  0  0  0  0  0  0  0  0  0  0
    3.5117    3.7410   -0.3652 C   0  0  1  0  0  0  0  0  0  0  0  0
    4.0431    4.3584    0.9335 C   0  0  2  0  0  0  0  0  0  0  0  0
    4.1781    3.2777    2.0240 C   0  0  0  0  0  0  0  0  0  0  0  0
    4.5666    2.8191   -1.0909 C   0  0  1  0  0  0  0  0  0  0  0  0
    5.9603    3.2531   -0.5843 C   0  0  1  0  0  0  0  0  0  0  0  0
    6.2870    4.6369   -0.0288 C   0  0  1  0  0  0  0  0  0  0  0  0
    5.2201    5.1823    0.7561 O   0  0  0  0  0  0  0  0  0  0  0  0
    4.4542    3.0862   -2.5630 O   0  0  0  0  0  0  0  0  0  0  0  0
    6.5533    5.3538   -1.4780 C   0  0  2  0  0  0  0  0  0  0  0  0
    7.3031    4.2052   -2.2317 C   0  0  1  0  0  0  0  0  0  0  0  0
    6.5517    4.0300   -3.5474 C   0  0  0  0  0  0  0  0  0  0  0  0
    5.1057    4.3122   -3.1384 C   0  0  2  0  0  0  0  0  0  0  0  0
    4.1613    4.6211   -4.2979 C   0  0  0  0  0  0  0  0  0  0  0  0
    4.3900    5.9128   -5.0777 C   0  0  0  0  0  0  0  0  0  0  0  0
    7.0755    2.9636   -1.4695 O   0  0  0  0  0  0  0  0  0  0  0  0
    5.2540    5.4849   -2.2510 O   0  0  0  0  0  0  0  0  0  0  0  0
    3.0732    6.6789   -5.1889 C   0  0  2  0  0  0  0  0  0  0  0  0
    3.1294    7.6700   -6.2330 O   0  0  0  0  0  0  0  0  0  0  0  0
    2.0293    8.5714   -5.9539 C   0  0  2  0  0  0  0  0  0  0  0  0
    2.0819    8.6781   -4.4587 C   0  0  0  0  0  0  0  0  0  0  0  0
    2.7011    7.4343   -3.9133 C   0  0  0  0  0  0  0  0  0  0  0  0
    1.8221    9.7723   -3.7293 C   0  0  0  0  0  0  0  0  0  0  0  0
    0.7417    7.9925   -6.5828 C   0  0  0  0  0  0  0  0  0  0  0  0
   -0.5752    8.5156   -6.0040 C   0  0  0  0  0  0  0  0  0  0  0  0
   -1.4826    7.4061   -5.4309 C   0  0  2  0  0  0  0  0  0  0  0  0
   -1.5832    5.8112   -3.6423 C   0  0  1  0  0  0  0  0  0  0  0  0
   -0.7306    6.5671   -4.5334 O   0  0  0  0  0  0  0  0  0  0  0  0
   -2.7021    8.0416   -4.7405 C   0  0  0  0  0  0  0  0  0  0  0  0
   -2.4400    8.2049   -3.2384 C   0  0  2  0  0  0  0  0  0  0  0  0
   -2.1526    6.8277   -2.6364 C   0  0  0  0  0  0  0  0  0  0  0  0
   -2.4140    6.5686   -1.3428 C   0  0  0  0  0  0  0  0  0  0  0  0
   -3.6023    8.9762   -2.6001 C   0  0  0  0  0  0  0  0  0  0  0  0
   -0.7465    4.6291   -3.0714 C   0  0  0  0  0  0  0  0  0  0  0  0
  1  2  1  0  0  0  0
  1  5  1  0  0  0  0
  1  6  1  1  0  0  0
  2  3  1  0  0  0  0
  2  8  1  1  0  0  0
  4  3  1  1  0  0  0
  4  5  1  0  0  0  0
  4 52  1  0  0  0  0
  5 13  1  6  0  0  0
  6  7  1  0  0  0  0
  9  8  1  1  0  0  0
  9 10  1  0  0  0  0
  9 12  1  0  0  0  0
 10 11  1  0  0  0  0
 13 14  1  0  0  0  0
 14 15  1  0  0  0  0
 14 16  2  0  0  0  0
 15 17  1  0  0  0  0
 17 19  1  0  0  0  0
 18 17  1  0  0  0  0
 18 22  1  0  0  0  0
 20 19  1  1  0  0  0
 20 23  1  0  0  0  0
 21 22  1  6  0  0  0
 21 26  1  0  0  0  0
 21 20  1  0  0  0  0
 23 24  1  0  0  0  0
 23 27  1  1  0  0  0
 24 25  1  0  0  0  0
 24 34  1  1  0  0  0
 25 26  1  1  0  0  0
 25 28  1  0  0  0  0
 28 29  1  0  0  0  0
 28 35  1  1  0  0  0
 29 30  1  1  0  0  0
 29 34  1  0  0  0  0
 31 30  1  1  0  0  0
 31 32  1  0  0  0  0
 31 35  1  0  0  0  0
 31 27  1  0  0  0  0
 32 33  1  0  0  0  0
 36 33  1  1  0  0  0
 37 36  1  0  0  0  0
 38 37  1  1  0  0  0
 38 39  1  0  0  0  0
 38 42  1  0  0  0  0
 39 40  1  0  0  0  0
 39 41  2  0  0  0  0
 40 36  1  0  0  0  0
 42 43  1  0  0  0  0
 44 43  1  6  0  0  0
 44 47  1  0  0  0  0
 45 46  1  1  0  0  0
 45 49  1  0  0  0  0
 45 52  1  0  0  0  0
 46 44  1  0  0  0  0
 47 48  1  0  0  0  0
 48 49  1  0  0  0  0
 48 51  1  1  0  0  0
 49 50  2  0  0  0  0
M  END
