530
 OpenBabel10141417543D

 29 31  0  0  0  0  0  0  0  0999 V2000
   -1.0957   -1.1405   -2.8921 O   0  0  0  0  0  0  0  0  0  0  0  0
   -3.2677   -2.4971   -4.5339 O   0  0  0  0  0  0  0  0  0  0  0  0
    0.3933   -1.5382    0.5930 O   0  0  0  0  0  0  0  0  0  0  0  0
   -4.6382   -1.1723   -2.3003 O   0  0  0  0  0  0  0  0  0  0  0  0
    2.5901   -4.5402   -2.6729 N   0  0  0  0  0  0  0  0  0  0  0  0
   -0.8553   -6.4876   -3.9746 N   0  0  0  0  0  0  0  0  0  0  0  0
    1.3909   -6.5457   -3.1355 N   0  0  0  0  0  0  0  0  0  0  0  0
    0.2592   -4.4611   -3.4191 C   0  0  0  0  0  0  0  0  0  0  0  0
   -0.8498   -5.1532   -3.9083 C   0  0  0  0  0  0  0  0  0  0  0  0
   -1.0473   -2.4005   -3.3960 C   0  0  0  0  0  0  0  0  0  0  0  0
   -2.0876   -3.0255   -4.0829 C   0  0  0  0  0  0  0  0  0  0  0  0
    0.1508   -3.0773   -3.2456 C   0  0  0  0  0  0  0  0  0  0  0  0
    1.4153   -5.2071   -3.0982 C   0  0  0  0  0  0  0  0  0  0  0  0
   -1.9561   -4.4080   -4.3362 C   0  0  0  0  0  0  0  0  0  0  0  0
   -0.5289   -0.8425   -1.5911 C   0  0  0  0  0  0  0  0  0  0  0  0
    3.9267   -4.9567   -2.5191 C   0  0  0  0  0  0  0  0  0  0  0  0
   -3.4813   -1.0838   -4.5383 C   0  0  0  0  0  0  0  0  0  0  0  0
    0.2481   -7.1162   -3.5400 C   0  0  0  0  0  0  0  0  0  0  0  0
   -0.3320   -1.9701   -0.5609 C   0  0  0  0  0  0  0  0  0  0  0  0
   -3.7487   -0.4680   -3.1644 C   0  0  0  0  0  0  0  0  0  0  0  0
    4.4758   -6.0749   -3.1500 C   0  0  0  0  0  0  0  0  0  0  0  0
    4.7416   -4.2311   -1.6285 C   0  0  0  0  0  0  0  0  0  0  0  0
    5.8011   -6.4627   -2.8941 C   0  0  0  0  0  0  0  0  0  0  0  0
    6.0726   -4.5886   -1.4003 C   0  0  0  0  0  0  0  0  0  0  0  0
    6.5985   -5.7140   -2.0221 C   0  0  0  0  0  0  0  0  0  0  0  0
    1.6825   -1.0144    0.2891 C   0  0  0  0  0  0  0  0  0  0  0  0
   -4.6322   -0.5041   -1.0325 C   0  0  0  0  0  0  0  0  0  0  0  0
    6.3504   -7.6151   -3.5063 C   0  0  0  0  0  0  0  0  0  0  0  0
    6.8620   -8.6103   -4.0126 C   0  0  0  0  0  0  0  0  0  0  0  0
  1 10  1  0  0  0  0
  1 15  1  0  0  0  0
  2 11  1  0  0  0  0
  2 17  1  0  0  0  0
  3 19  1  0  0  0  0
  3 26  1  0  0  0  0
  4 20  1  0  0  0  0
  4 27  1  0  0  0  0
  5 13  1  0  0  0  0
  5 16  1  0  0  0  0
  6  9  1  0  0  0  0
  6 18  2  0  0  0  0
  7 13  2  0  0  0  0
  7 18  1  0  0  0  0
  8  9  1  0  0  0  0
  8 12  2  0  0  0  0
  8 13  1  0  0  0  0
  9 14  2  0  0  0  0
 10 11  2  0  0  0  0
 10 12  1  0  0  0  0
 11 14  1  0  0  0  0
 15 19  1  0  0  0  0
 16 21  1  0  0  0  0
 16 22  2  0  0  0  0
 17 20  1  0  0  0  0
 21 23  2  0  0  0  0
 22 24  1  0  0  0  0
 23 25  1  0  0  0  0
 23 28  1  0  0  0  0
 24 25  2  0  0  0  0
 28 29  3  0  0  0  0
M  END
