1175
 OpenBabel10141417513D

 24 26  0  0  1  0  0  0  0  0999 V2000
   -0.5124    0.3319    2.5736 F   0  0  0  0  0  0  0  0  0  0  0  0
    5.6899   -0.2267    1.2996 O   0  0  0  0  0  0  0  0  0  0  0  0
    4.3153    2.6735   -3.0150 N   0  0  0  0  0  0  0  0  0  0  0  0
    9.0644    3.9401    5.9607 N   0  0  0  0  0  0  0  0  0  0  0  0
    4.9801    1.0540    1.2617 C   0  0  2  0  0  0  0  0  0  0  0  0
    5.1934    1.6530   -0.1638 C   0  0  0  0  0  0  0  0  0  0  0  0
    5.7181    1.8618    2.3104 C   0  0  0  0  0  0  0  0  0  0  0  0
    6.5708    1.0328    3.0293 C   0  0  0  0  0  0  0  0  0  0  0  0
    4.6611    0.7791   -1.3153 C   0  0  0  0  0  0  0  0  0  0  0  0
    3.4982    0.8497    1.6213 C   0  0  0  0  0  0  0  0  0  0  0  0
    6.4447   -0.3543    2.5263 C   0  0  0  0  0  0  0  0  0  0  0  0
    4.9135    1.3541   -2.7287 C   0  0  0  0  0  0  0  0  0  0  0  0
    5.6711    3.2231    2.5842 C   0  0  0  0  0  0  0  0  0  0  0  0
    7.3993    1.5259    4.0315 C   0  0  0  0  0  0  0  0  0  0  0  0
    2.6058    1.9407    1.6417 C   0  0  0  0  0  0  0  0  0  0  0  0
    2.9815   -0.4217    1.9454 C   0  0  0  0  0  0  0  0  0  0  0  0
    6.5116    3.7405    3.5780 C   0  0  0  0  0  0  0  0  0  0  0  0
    7.3930    2.9023    4.2777 C   0  0  0  0  0  0  0  0  0  0  0  0
    1.2564    1.7660    1.9640 C   0  0  0  0  0  0  0  0  0  0  0  0
    1.6327   -0.5956    2.2714 C   0  0  0  0  0  0  0  0  0  0  0  0
    0.7821    0.4994    2.2729 C   0  0  0  0  0  0  0  0  0  0  0  0
    4.6734    3.0997   -4.3766 C   0  0  0  0  0  0  0  0  0  0  0  0
    2.8561    2.6518   -2.8919 C   0  0  0  0  0  0  0  0  0  0  0  0
    8.3123    3.4713    5.2264 C   0  0  0  0  0  0  0  0  0  0  0  0
  1 21  1  0  0  0  0
  2  5  1  0  0  0  0
  2 11  1  0  0  0  0
  3 12  1  0  0  0  0
  3 22  1  0  0  0  0
  3 23  1  0  0  0  0
  4 24  3  0  0  0  0
  5  6  1  6  0  0  0
  5  7  1  0  0  0  0
  5 10  1  0  0  0  0
  6  9  1  0  0  0  0
  7  8  2  0  0  0  0
  7 13  1  0  0  0  0
  8 11  1  0  0  0  0
  8 14  1  0  0  0  0
  9 12  1  0  0  0  0
 10 15  2  0  0  0  0
 10 16  1  0  0  0  0
 13 17  2  0  0  0  0
 14 18  2  0  0  0  0
 15 19  1  0  0  0  0
 16 20  2  0  0  0  0
 17 18  1  0  0  0  0
 18 24  1  0  0  0  0
 19 21  2  0  0  0  0
 20 21  1  0  0  0  0
M  END
