187
 OpenBabel10141417503D

 21 21  0  0  1  0  0  0  0  0999 V2000
    2.9984   -0.9079    1.5982 O   0  0  0  0  0  0  0  0  0  0  0  0
    0.7144   -1.6797    3.0724 O   0  0  0  0  0  0  0  0  0  0  0  0
    6.8774    2.5500   -1.9727 O   0  0  0  0  0  0  0  0  0  0  0  0
    8.0833    0.7214   -2.6822 O   0  0  0  0  0  0  0  0  0  0  0  0
   -0.4085    1.8099    2.1963 N   0  0  0  0  0  0  0  0  0  0  0  0
    0.6946   -0.4957    2.2552 C   0  0  3  0  0  0  0  0  0  0  0  0
   -0.3020    0.5076    2.8831 C   0  0  0  0  0  0  0  0  0  0  0  0
   -1.3722    2.7199    2.8429 C   0  0  0  0  0  0  0  0  0  0  0  0
    2.1196    0.0724    2.1762 C   0  0  0  0  0  0  0  0  0  0  0  0
   -0.9502    3.1119    4.2626 C   0  0  0  0  0  0  0  0  0  0  0  0
   -1.5113    4.0080    2.0167 C   0  0  0  0  0  0  0  0  0  0  0  0
    6.9788    0.1408    0.7760 C   0  0  0  0  0  0  0  0  0  0  0  0
    8.3953    0.5062    0.3969 C   0  0  0  0  0  0  0  0  0  0  0  0
    4.2974   -0.5088    1.4007 C   0  0  0  0  0  0  0  0  0  0  0  0
    6.4681   -1.1331    0.4976 C   0  0  0  0  0  0  0  0  0  0  0  0
    6.1503    1.0607    1.4270 C   0  0  0  0  0  0  0  0  0  0  0  0
    5.1368   -1.4504    0.8013 C   0  0  0  0  0  0  0  0  0  0  0  0
    4.8243    0.7382    1.7389 C   0  0  0  0  0  0  0  0  0  0  0  0
    8.5199    1.7278   -0.5131 C   0  0  0  0  0  0  0  0  0  0  0  0
    7.8144    1.5641   -1.8467 C   0  0  0  0  0  0  0  0  0  0  0  0
    6.1836    2.5669   -3.2236 C   0  0  0  0  0  0  0  0  0  0  0  0
  1  9  1  0  0  0  0
  1 14  1  0  0  0  0
  2  6  1  0  0  0  0
  3 20  1  0  0  0  0
  3 21  1  0  0  0  0
  4 20  2  0  0  0  0
  5  7  1  0  0  0  0
  5  8  1  0  0  0  0
  6  7  1  0  0  0  0
  6  9  1  0  0  0  0
  8 10  1  0  0  0  0
  8 11  1  0  0  0  0
 12 13  1  0  0  0  0
 12 15  2  0  0  0  0
 12 16  1  0  0  0  0
 13 19  1  0  0  0  0
 14 17  2  0  0  0  0
 14 18  1  0  0  0  0
 15 17  1  0  0  0  0
 16 18  2  0  0  0  0
 19 20  1  0  0  0  0
M  END
