
 OpenBabel10141417503D

 24 26  0  0  0  0  0  0  0  0999 V2000
    2.6815   -4.3518   -2.1922 C   0  0  0  0  0  0  0  0  0  0  0  0
    2.9844   -3.2608   -1.4676 N   0  0  0  0  0  0  0  0  0  0  0  0
    2.5318   -2.0627   -1.9108 C   0  0  0  0  0  0  0  0  0  0  0  0
    2.8992   -0.8973   -1.0224 C   0  0  0  0  0  0  0  0  0  0  0  0
    4.6422    0.3469   -2.7504 O   0  0  0  0  0  0  0  0  0  0  0  0
    1.7667   -1.9219   -3.0875 C   0  0  0  0  0  0  0  0  0  0  0  0
    1.3912   -3.1018   -3.7748 C   0  0  0  0  0  0  0  0  0  0  0  0
    0.6474   -3.1577   -4.9311 O   0  0  0  0  0  0  0  0  0  0  0  0
   -0.4570   -2.2698   -5.0935 C   0  0  0  0  0  0  0  0  0  0  0  0
    4.5505   -0.2241   -1.3817 S   0  0  1  0  0  0  0  0  0  0  0  0
    4.4332    1.1530   -0.3354 C   0  0  0  0  0  0  0  0  0  0  0  0
    3.9628    1.1193    0.8996 N   0  0  0  0  0  0  0  0  0  0  0  0
    4.7595    2.4212   -0.7113 N   0  0  0  0  0  0  0  0  0  0  0  0
    4.4400    3.2655    0.3256 C   0  0  0  0  0  0  0  0  0  0  0  0
    3.9376    2.4312    1.3168 C   0  0  0  0  0  0  0  0  0  0  0  0
    4.5397    4.6428    0.4598 C   0  0  0  0  0  0  0  0  0  0  0  0
    3.4827    2.9933    2.5204 C   0  0  0  0  0  0  0  0  0  0  0  0
    4.0750    5.1890    1.6753 C   0  0  0  0  0  0  0  0  0  0  0  0
    3.5345    4.3881    2.6760 C   0  0  0  0  0  0  0  0  0  0  0  0
    3.0618    4.8626    3.8767 O   0  0  0  0  0  0  0  0  0  0  0  0
    2.5525    6.1936    3.8433 C   0  0  0  0  0  0  0  0  0  0  0  0
    1.4206   -0.5434   -3.5743 C   0  0  0  0  0  0  0  0  0  0  0  0
    1.8932   -4.3442   -3.3343 C   0  0  0  0  0  0  0  0  0  0  0  0
    1.6432   -5.6550   -4.0270 C   0  0  0  0  0  0  0  0  0  0  0  0
  1 23  2  0  0  0  0
  1  2  1  0  0  0  0
  3  2  2  0  0  0  0
  3  4  1  0  0  0  0
  6  3  1  0  0  0  0
  6 22  1  0  0  0  0
  7  6  2  0  0  0  0
  7  8  1  0  0  0  0
  8  9  1  0  0  0  0
 10  5  2  6  0  0  0
 10 11  1  0  0  0  0
 10  4  1  0  0  0  0
 11 12  2  0  0  0  0
 12 15  1  0  0  0  0
 13 11  1  0  0  0  0
 13 14  1  0  0  0  0
 14 15  2  0  0  0  0
 15 17  1  0  0  0  0
 16 14  1  0  0  0  0
 16 18  2  0  0  0  0
 17 19  2  0  0  0  0
 19 18  1  0  0  0  0
 19 20  1  0  0  0  0
 20 21  1  0  0  0  0
 23  7  1  0  0  0  0
 23 24  1  0  0  0  0
M  END
