
 OpenBabel10141417543D

 21 24  0  0  1  0  0  0  0  0999 V2000
    4.2646    0.9164    0.3518 O   0  0  0  0  0  0  0  0  0  0  0  0
    1.9366   -1.3578    2.0070 O   0  0  0  0  0  0  0  0  0  0  0  0
   10.0302   -6.3982   -2.1825 O   0  0  0  0  0  0  0  0  0  0  0  0
    5.0124   -0.7623    2.0458 C   0  0  1  0  0  0  0  0  0  0  0  0
    4.6320   -2.2206    1.6163 C   0  0  2  0  0  0  0  0  0  0  0  0
    5.7033   -3.1902    1.1199 C   0  0  1  0  0  0  0  0  0  0  0  0
    6.8826   -2.4880    0.4423 C   0  0  2  0  0  0  0  0  0  0  0  0
    3.8315    0.1186    1.4532 C   0  0  2  0  0  0  0  0  0  0  0  0
    6.4341   -0.2999    1.6030 C   0  0  0  0  0  0  0  0  0  0  0  0
    3.6272   -2.0182    0.4646 C   0  0  0  0  0  0  0  0  0  0  0  0
    2.7698   -0.8792    0.9572 C   0  0  1  0  0  0  0  0  0  0  0  0
    7.4653   -1.4158    1.3692 C   0  0  0  0  0  0  0  0  0  0  0  0
    6.2099   -4.1838    2.1750 C   0  0  0  0  0  0  0  0  0  0  0  0
    4.9271   -0.6256    3.5873 C   0  0  0  0  0  0  0  0  0  0  0  0
    7.8606   -3.5252   -0.0932 C   0  0  0  0  0  0  0  0  0  0  0  0
    6.9000   -5.3347    1.4379 C   0  0  0  0  0  0  0  0  0  0  0  0
    7.8189   -4.8680    0.3279 C   0  0  0  0  0  0  0  0  0  0  0  0
    8.7069   -3.1659   -1.1609 C   0  0  0  0  0  0  0  0  0  0  0  0
    8.5588   -5.8434   -0.3675 C   0  0  0  0  0  0  0  0  0  0  0  0
    9.4428   -4.1431   -1.8356 C   0  0  0  0  0  0  0  0  0  0  0  0
    9.3492   -5.4643   -1.4546 C   0  0  0  0  0  0  0  0  0  0  0  0
  3 21  1  0  0  0  0
  4  5  1  0  0  0  0
  4  8  1  0  0  0  0
  4  9  1  0  0  0  0
  4 14  1  6  0  0  0
  5  6  1  0  0  0  0
  5 10  1  6  0  0  0
  6  7  1  0  0  0  0
  6 13  1  1  0  0  0
  7 12  1  6  0  0  0
  7 15  1  0  0  0  0
  8 11  1  0  0  0  0
  8  1  1  6  0  0  0
  9 12  1  0  0  0  0
 10 11  1  0  0  0  0
 11  2  1  1  0  0  0
 13 16  1  0  0  0  0
 15 17  2  0  0  0  0
 15 18  1  0  0  0  0
 16 17  1  0  0  0  0
 17 19  1  0  0  0  0
 18 20  2  0  0  0  0
 19 21  2  0  0  0  0
 20 21  1  0  0  0  0
M  END
