783
 OpenBabel10141417513D

 20 23  0  0  1  0  0  0  0  0999 V2000
    3.1978   -0.6380    1.7495 O   0  0  0  0  0  0  0  0  0  0  0  0
    0.8702    3.4358    8.4935 O   0  0  0  0  0  0  0  0  0  0  0  0
    5.2222    0.8270    1.6416 C   0  0  1  0  0  0  0  0  0  0  0  0
    4.8659    2.3486    1.6643 C   0  0  2  0  0  0  0  0  0  0  0  0
    3.9618    2.8247    2.8446 C   0  0  1  0  0  0  0  0  0  0  0  0
    3.6712    1.7216    3.8784 C   0  0  2  0  0  0  0  0  0  0  0  0
    3.9994    0.1713    0.9010 C   0  0  2  0  0  0  0  0  0  0  0  0
    5.5347    0.2228    3.0313 C   0  0  0  0  0  0  0  0  0  0  0  0
    4.0935    2.5172    0.3393 C   0  0  0  0  0  0  0  0  0  0  0  0
    4.9478    0.9630    4.2277 C   0  0  0  0  0  0  0  0  0  0  0  0
    3.1572    1.3208    0.3375 C   0  0  0  0  0  0  0  0  0  0  0  0
    4.5563    4.0658    3.5350 C   0  0  0  0  0  0  0  0  0  0  0  0
    6.4870    0.6109    0.7580 C   0  0  0  0  0  0  0  0  0  0  0  0
    2.9766    2.2314    5.1234 C   0  0  0  0  0  0  0  0  0  0  0  0
    3.5784    4.6380    4.5642 C   0  0  0  0  0  0  0  0  0  0  0  0
    2.9381    3.5999    5.4493 C   0  0  0  0  0  0  0  0  0  0  0  0
    2.3303    1.3032    5.9569 C   0  0  0  0  0  0  0  0  0  0  0  0
    2.2229    4.0069    6.5862 C   0  0  0  0  0  0  0  0  0  0  0  0
    1.6392    1.7141    7.0897 C   0  0  0  0  0  0  0  0  0  0  0  0
    1.5830    3.0704    7.3914 C   0  0  0  0  0  0  0  0  0  0  0  0
  2 20  1  0  0  0  0
  3  4  1  0  0  0  0
  3  7  1  0  0  0  0
  3  8  1  0  0  0  0
  3 13  1  1  0  0  0
  4  5  1  0  0  0  0
  4  9  1  6  0  0  0
  5  6  1  0  0  0  0
  5 12  1  1  0  0  0
  6 10  1  6  0  0  0
  6 14  1  0  0  0  0
  7  1  1  1  0  0  0
  7 11  1  0  0  0  0
  8 10  1  0  0  0  0
  9 11  1  0  0  0  0
 12 15  1  0  0  0  0
 14 16  2  0  0  0  0
 14 17  1  0  0  0  0
 15 16  1  0  0  0  0
 16 18  1  0  0  0  0
 17 19  2  0  0  0  0
 18 20  2  0  0  0  0
 19 20  1  0  0  0  0
M  END
