
 OpenBabel10141417493D

 49 55  0  0  0  0  0  0  0  0999 V2000
    9.6656    4.7921   -3.4855 C   0  0  0  0  0  0  0  0  0  0  0  0
   10.4505    5.8875   -3.8481 C   0  0  0  0  0  0  0  0  0  0  0  0
    9.8363    7.0243   -4.3545 C   0  0  0  0  0  0  0  0  0  0  0  0
    8.4562    7.0775   -4.5064 C   0  0  0  0  0  0  0  0  0  0  0  0
    7.6596    5.9761   -4.1549 C   0  0  0  0  0  0  0  0  0  0  0  0
    8.2663    4.8225   -3.6300 C   0  0  0  0  0  0  0  0  0  0  0  0
    7.4528    3.6047   -3.2259 C   0  0  2  0  0  0  0  0  0  0  0  0
    6.1656    6.0956   -4.2817 C   0  0  0  0  0  0  0  0  0  0  0  0
    5.4315    4.7563   -4.2028 C   0  0  0  0  0  0  0  0  0  0  0  0
    5.9523    3.9142   -3.0226 C   0  0  1  0  0  0  0  0  0  0  0  0
    6.9674    1.1954   -3.7560 C   0  0  0  0  0  0  0  0  0  0  0  0
    7.6413    2.4706   -4.2443 C   0  0  0  0  0  0  0  0  0  0  0  0
    5.4608    1.3318   -3.4599 C   0  0  2  0  0  0  0  0  0  0  0  0
    4.5519    1.4811   -4.7131 C   0  0  2  0  0  0  0  0  0  0  0  0
    5.1531    2.6263   -2.6538 C   0  0  1  0  0  0  0  0  0  0  0  0
    3.6402    2.7777   -2.8158 C   0  0  0  0  0  0  0  0  0  0  0  0
    3.3330    2.2982   -4.2336 C   0  0  0  0  0  0  0  0  0  0  0  0
   10.5590    8.1243   -4.7112 O   0  0  0  0  0  0  0  0  0  0  0  0
    5.0481    0.0759   -2.6467 C   0  0  0  0  0  0  0  0  0  0  0  0
    4.0320    0.2410   -5.2317 O   0  0  0  0  0  0  0  0  0  0  0  0
    4.8134   -0.4646   -6.0889 C   0  0  0  0  0  0  0  0  0  0  0  0
    5.9541   -0.1768   -6.4188 O   0  0  0  0  0  0  0  0  0  0  0  0
    4.0553   -1.6419   -6.6457 C   0  0  0  0  0  0  0  0  0  0  0  0
    3.3969   -1.2549   -7.9652 C   0  0  0  0  0  0  0  0  0  0  0  0
    2.6266   -2.4241   -8.5746 C   0  0  0  0  0  0  0  0  0  0  0  0
    1.9727   -2.0350   -9.8915 C   0  0  0  0  0  0  0  0  0  0  0  0
   -0.1348   -0.3083   -0.4824 C   0  0  0  0  0  0  0  0  0  0  0  0
    0.2197    0.7277   -1.5382 C   0  0  0  0  0  0  0  0  0  0  0  0
    0.2878    2.1027   -0.9306 C   0  0  0  0  0  0  0  0  0  0  0  0
    0.7617    2.2223    0.4657 C   0  0  0  0  0  0  0  0  0  0  0  0
    1.0126    1.1357    1.2143 C   0  0  0  0  0  0  0  0  0  0  0  0
    0.7621   -0.2299    0.7377 C   0  0  0  0  0  0  0  0  0  0  0  0
    1.2670   -1.3011    1.3966 C   0  0  0  0  0  0  0  0  0  0  0  0
    1.5923    1.2851    2.5976 C   0  0  0  0  0  0  0  0  0  0  0  0
    2.6887    0.2520    2.8166 C   0  0  0  0  0  0  0  0  0  0  0  0
    2.1215   -1.1690    2.6553 C   0  0  1  0  0  0  0  0  0  0  0  0
    2.3617   -3.4523    0.6666 C   0  0  0  0  0  0  0  0  0  0  0  0
    1.0484   -2.7391    1.0132 C   0  0  0  0  0  0  0  0  0  0  0  0
    3.2600   -2.2153    2.7366 C   0  0  1  0  0  0  0  0  0  0  0  0
    3.6316   -2.9257    1.4071 C   0  0  1  0  0  0  0  0  0  0  0  0
    2.9562   -3.3886    3.6904 C   0  0  0  0  0  0  0  0  0  0  0  0
    3.7607   -4.5919    3.1731 C   0  0  0  0  0  0  0  0  0  0  0  0
    4.5442   -4.0851    1.9461 C   0  0  2  0  0  0  0  0  0  0  0  0
    0.0531    3.1195   -1.5794 O   0  0  0  0  0  0  0  0  0  0  0  0
    4.3999   -1.9672    0.4756 C   0  0  0  0  0  0  0  0  0  0  0  0
    5.7672   -3.5199    2.4535 O   0  0  0  0  0  0  0  0  0  0  0  0
    4.8860   -5.1905    0.9300 C   0  0  0  0  0  0  0  0  0  0  0  0
    5.7273   -6.2480    1.5053 C   0  0  0  0  0  0  0  0  0  0  0  0
    6.3964   -7.1054    1.9257 N   0  0  0  0  0  0  0  0  0  0  0  0
  1  2  2  0  0  0  0
  1  6  1  0  0  0  0
  2  3  1  0  0  0  0
  3  4  2  0  0  0  0
  3 18  1  0  0  0  0
  4  5  1  0  0  0  0
  5  6  2  0  0  0  0
  5  8  1  0  0  0  0
  7  6  1  1  0  0  0
  7 10  1  0  0  0  0
  8  9  1  0  0  0  0
 10  9  1  6  0  0  0
 10 15  1  0  0  0  0
 11 12  1  0  0  0  0
 11 13  1  0  0  0  0
 12  7  1  0  0  0  0
 13 15  1  0  0  0  0
 13 19  1  1  0  0  0
 14 13  1  0  0  0  0
 14 17  1  0  0  0  0
 14 20  1  1  0  0  0
 15 16  1  1  0  0  0
 16 17  1  0  0  0  0
 20 21  1  0  0  0  0
 21 22  2  0  0  0  0
 21 23  1  0  0  0  0
 23 24  1  0  0  0  0
 24 25  1  0  0  0  0
 25 26  1  0  0  0  0
 27 28  1  0  0  0  0
 27 32  1  0  0  0  0
 28 29  1  0  0  0  0
 29 30  1  0  0  0  0
 29 44  2  0  0  0  0
 30 31  2  0  0  0  0
 31 34  1  0  0  0  0
 32 31  1  0  0  0  0
 33 32  2  0  0  0  0
 33 36  1  0  0  0  0
 34 35  1  0  0  0  0
 36 35  1  1  0  0  0
 36 39  1  0  0  0  0
 37 38  1  0  0  0  0
 37 40  1  0  0  0  0
 38 33  1  0  0  0  0
 39 41  1  6  0  0  0
 40 39  1  0  0  0  0
 40 43  1  0  0  0  0
 40 45  1  6  0  0  0
 41 42  1  0  0  0  0
 42 43  1  0  0  0  0
 43 47  1  6  0  0  0
 43 46  1  0  0  0  0
 47 48  1  0  0  0  0
 48 49  3  0  0  0  0
M  END
