
 OpenBabel10141417533D

 14 13  0  0  1  0  0  0  0  0999 V2000
   -1.4615    5.2113   -0.1194 N   0  0  0  0  0  0  0  0  0  0  0  0
    0.2144    7.7204   -0.6862 N   0  0  0  0  0  0  0  0  0  0  0  0
   -2.7505    4.1825    2.4808 O   0  0  0  0  0  0  0  0  0  0  0  0
    1.3437   10.6750   -2.7456 O   0  0  0  0  0  0  0  0  0  0  0  0
    0.3729    9.1247   -1.0943 C   0  0  2  0  0  0  0  0  0  0  0  0
   -1.7111    3.7950    0.2164 C   0  0  2  0  0  0  0  0  0  0  0  0
   -0.3958    6.8715   -1.7114 C   0  0  0  0  0  0  0  0  0  0  0  0
   -0.5800    5.3950   -1.2779 C   0  0  0  0  0  0  0  0  0  0  0  0
    1.2601    9.3049   -2.3487 C   0  0  0  0  0  0  0  0  0  0  0  0
   -2.9278    3.6430    1.1766 C   0  0  0  0  0  0  0  0  0  0  0  0
    0.9714    9.9449    0.0836 C   0  0  0  0  0  0  0  0  0  0  0  0
   -0.4481    3.0586    0.7227 C   0  0  0  0  0  0  0  0  0  0  0  0
    0.1566    9.8725    1.3699 C   0  0  0  0  0  0  0  0  0  0  0  0
    0.1540    3.5332    2.0382 C   0  0  0  0  0  0  0  0  0  0  0  0
  5 11  1  1  0  0  0
  5  9  1  0  0  0  0
  5  2  1  0  0  0  0
  6 12  1  1  0  0  0
  6 10  1  0  0  0  0
  6  1  1  0  0  0  0
  7  2  1  0  0  0  0
  8  1  1  0  0  0  0
  8  7  1  0  0  0  0
  9  4  1  0  0  0  0
 10  3  1  0  0  0  0
 12 14  1  0  0  0  0
 13 11  1  0  0  0  0
M  END
