
 OpenBabel10141417533D

 24 22  0  0  0  0  0  0  0  0999 V2000
    0.5561    1.6899    2.0117 C   0  0  0  0  0  0  0  0  0  0  0  0
   -0.8468    1.3267    2.5155 C   0  0  0  0  0  0  0  0  0  0  0  0
    1.6544    1.4674    3.0557 C   0  0  0  0  0  0  0  0  0  0  0  0
   -1.0210   -0.0915    2.9826 C   0  0  0  0  0  0  0  0  0  0  0  0
    3.0342    1.8337    2.4991 C   0  0  0  0  0  0  0  0  0  0  0  0
   -0.8580   -1.1954    2.2355 C   0  0  0  0  0  0  0  0  0  0  0  0
    4.1415    1.6652    3.5504 C   0  0  0  0  0  0  0  0  0  0  0  0
   -0.5501   -1.2230    0.7645 C   0  0  0  0  0  0  0  0  0  0  0  0
    5.5007    2.0989    2.9994 C   0  0  0  0  0  0  0  0  0  0  0  0
    0.7493   -1.9422    0.4055 C   0  0  0  0  0  0  0  0  0  0  0  0
    6.6523    1.9176    3.9909 C   0  0  0  0  0  0  0  0  0  0  0  0
    1.2633   -1.6840   -1.0236 C   0  0  0  0  0  0  0  0  0  0  0  0
    7.9794    2.3233    3.3793 C   0  0  0  0  0  0  0  0  0  0  0  0
    0.4206   -2.1316   -2.2377 C   0  0  0  0  0  0  0  0  0  0  0  0
    8.0692    2.0432    2.0579 O   0  0  0  0  0  0  0  0  0  0  0  0
    8.9139    2.8035    3.9696 O   0  0  0  0  0  0  0  0  0  0  0  0
   -0.9361   -1.4412   -2.4412 C   0  0  0  0  0  0  0  0  0  0  0  0
   -1.7190   -1.9503   -3.6673 C   0  0  0  0  0  0  0  0  0  0  0  0
   -3.0789   -1.2403   -3.7854 C   0  0  0  0  0  0  0  0  0  0  0  0
   -3.9283   -1.7270   -4.9532 C   0  0  0  0  0  0  0  0  0  0  0  0
    4.0553   -1.4996   -6.9038 O   0  0  0  0  0  0  0  0  0  0  0  0
    4.8761   -0.3962   -6.5289 C   0  0  0  0  0  0  0  0  0  0  0  0
    6.3252   -0.8474   -6.3235 C   0  0  0  0  0  0  0  0  0  0  0  0
    6.4375   -1.8394   -5.2471 N   0  0  0  0  0  0  0  0  0  0  0  0
  1  2  1  0  0  0  0
  1  3  1  0  0  0  0
  2  4  1  0  0  0  0
  3  5  1  0  0  0  0
  4  6  2  0  0  0  0
  5  7  1  0  0  0  0
  6  8  1  0  0  0  0
  7  9  1  0  0  0  0
  8 10  1  0  0  0  0
  9 11  1  0  0  0  0
 10 12  1  0  0  0  0
 11 13  1  0  0  0  0
 12 14  1  0  0  0  0
 13 15  1  0  0  0  0
 13 16  2  0  0  0  0
 14 17  1  0  0  0  0
 17 18  1  0  0  0  0
 18 19  1  0  0  0  0
 19 20  1  0  0  0  0
 21 22  1  0  0  0  0
 22 23  1  0  0  0  0
 23 24  1  0  0  0  0
M  END
