609
 OpenBabel10141417523D

 11 11  0  0  0  0  0  0  0  0999 V2000
    2.1933    2.0831    0.7467 S   0  0  0  0  0  0  0  0  0  0  0  0
    4.3657   -2.6875    2.1688 N   0  0  0  0  0  0  0  0  0  0  0  0
    1.8846    0.2465   -1.0872 N   0  0  0  0  0  0  0  0  0  0  0  0
    2.8240   -4.3422    1.2575 C   0  0  0  0  0  0  0  0  0  0  0  0
    3.2931   -2.9156    1.3772 C   0  0  0  0  0  0  0  0  0  0  0  0
    2.6212   -1.8914    0.7177 C   0  0  0  0  0  0  0  0  0  0  0  0
    3.0825   -0.5791    0.8638 C   0  0  0  0  0  0  0  0  0  0  0  0
    1.7892   -4.6839    2.3172 C   0  0  0  0  0  0  0  0  0  0  0  0
    4.1866   -0.3344    1.6792 C   0  0  0  0  0  0  0  0  0  0  0  0
    4.7848   -1.4113    2.3058 C   0  0  0  0  0  0  0  0  0  0  0  0
    2.3907    0.5320    0.1558 C   0  0  0  0  0  0  0  0  0  0  0  0
  1 11  2  0  0  0  0
  2  5  2  0  0  0  0
  2 10  1  0  0  0  0
  3 11  1  0  0  0  0
  4  5  1  0  0  0  0
  4  8  1  0  0  0  0
  5  6  1  0  0  0  0
  6  7  2  0  0  0  0
  7  9  1  0  0  0  0
  7 11  1  0  0  0  0
  9 10  2  0  0  0  0
M  END
