
 OpenBabel10141417533D

 22 25  0  0  0  0  0  0  0  0999 V2000
    3.1217   -0.9695   -0.9101 O   0  0  0  0  0  0  0  0  0  0  0  0
    0.9138   -4.2519    7.9250 O   0  0  0  0  0  0  0  0  0  0  0  0
    3.5124    0.6857    1.3029 C   0  0  1  0  0  0  0  0  0  0  0  0
    2.6365    1.0501    2.6436 C   0  0  2  0  0  0  0  0  0  0  0  0
    2.7003    0.4029    4.0695 C   0  0  2  0  0  0  0  0  0  0  0  0
    2.4818   -0.0591   -0.0518 C   0  0  2  0  0  0  0  0  0  0  0  0
    4.7167   -0.2088    1.9032 C   0  0  0  0  0  0  0  0  0  0  0  0
    1.4169    0.2933    2.2009 C   0  0  0  0  0  0  0  0  0  0  0  0
    4.5678   -1.0260    3.2630 C   0  0  0  0  0  0  0  0  0  0  0  0
    2.0265   -0.9295    1.2504 C   0  0  0  0  0  0  0  0  0  0  0  0
    3.1592    1.0525    5.3713 C   0  0  0  0  0  0  0  0  0  0  0  0
    4.1261    1.9452    0.6487 C   0  0  0  0  0  0  0  0  0  0  0  0
    2.9219   -1.8542    5.1943 C   0  0  0  0  0  0  0  0  0  0  0  0
    2.4613    0.2628    6.5416 C   0  0  0  0  0  0  0  0  0  0  0  0
    2.4435   -1.2557    6.3712 C   0  0  0  0  0  0  0  0  0  0  0  0
    1.0378   -0.0591   -0.0518 C   0  0  0  0  0  0  0  0  0  0  0  0
    2.7788   -3.2448    4.9910 C   0  0  0  0  0  0  0  0  0  0  0  0
    1.7714   -2.0765    7.3120 C   0  0  0  0  0  0  0  0  0  0  0  0
    2.1088   -4.0334    5.9227 C   0  0  0  0  0  0  0  0  0  0  0  0
    1.6138   -3.4427    7.0611 C   0  0  0  0  0  0  0  0  0  0  0  0
   -0.1524   -0.0591   -0.0518 C   0  0  0  0  0  0  0  0  0  0  0  0
    3.2072   -1.0213    3.9642 C   0  0  2  0  0  0  0  0  0  0  0  0
  2 20  1  0  0  0  0
  3  4  1  0  0  0  0
  3  6  1  0  0  0  0
  3  7  1  0  0  0  0
  3 12  1  1  0  0  0
  4  5  1  0  0  0  0
  4  8  1  6  0  0  0
  5 11  1  1  0  0  0
  5 22  1  0  0  0  0
  6 10  1  0  0  0  0
  6 16  1  6  0  0  0
  6  1  1  0  0  0  0
  7  9  1  0  0  0  0
  8 10  1  0  0  0  0
 11 14  1  0  0  0  0
 13 15  2  0  0  0  0
 13 17  1  0  0  0  0
 14 15  1  0  0  0  0
 15 18  1  0  0  0  0
 16 21  3  0  0  0  0
 17 19  2  0  0  0  0
 18 20  2  0  0  0  0
 19 20  1  0  0  0  0
 22  9  1  6  0  0  0
 22 13  1  0  0  0  0
M  END
