1545
 OpenBabel10141418073D

 25 27  0  0  1  0  0  0  0  0999 V2000
    0.6406    0.3346   -0.9895 Cl  0  0  0  0  0  0  0  0  0  0  0  0
    3.1046    1.8092    2.3068 F   0  0  0  0  0  0  0  0  0  0  0  0
    8.8756    1.5969   -2.4019 O   0  0  0  0  0  0  0  0  0  0  0  0
    8.5478   -0.2147    0.3471 O   0  0  0  0  0  0  0  0  0  0  0  0
    9.0596    3.0748   -0.6561 O   0  0  0  0  0  0  0  0  0  0  0  0
    6.3285   -0.5128    0.4211 N   0  0  0  0  0  0  0  0  0  0  0  0
    6.4634    2.4758    0.0724 N   0  0  0  0  0  0  0  0  0  0  0  0
    4.4530    1.0675   -0.0129 C   0  0  0  0  0  0  0  0  0  0  0  0
    5.2300    2.2766    0.3890 C   0  0  0  0  0  0  0  0  0  0  0  0
    7.1929    1.4926   -0.7393 C   0  0  3  0  0  0  0  0  0  0  0  0
    4.9818   -0.2257    0.1427 C   0  0  0  0  0  0  0  0  0  0  0  0
    4.5874    3.3401    1.2307 C   0  0  0  0  0  0  0  0  0  0  0  0
    7.4329    0.2349    0.0739 C   0  0  0  0  0  0  0  0  0  0  0  0
    3.1192    1.2335   -0.4219 C   0  0  0  0  0  0  0  0  0  0  0  0
    4.1280   -1.3298    0.0186 C   0  0  0  0  0  0  0  0  0  0  0  0
    8.4830    2.1493   -1.2066 C   0  0  0  0  0  0  0  0  0  0  0  0
    2.2938    0.1217   -0.5670 C   0  0  0  0  0  0  0  0  0  0  0  0
    2.7874   -1.1574   -0.3322 C   0  0  0  0  0  0  0  0  0  0  0  0
    3.5609    3.0581    2.1358 C   0  0  0  0  0  0  0  0  0  0  0  0
    5.0745    4.6553    1.1554 C   0  0  0  0  0  0  0  0  0  0  0  0
    2.9923    4.0640    2.9133 C   0  0  0  0  0  0  0  0  0  0  0  0
    4.5185    5.6632    1.9490 C   0  0  0  0  0  0  0  0  0  0  0  0
    3.4715    5.3688    2.8213 C   0  0  0  0  0  0  0  0  0  0  0  0
   10.0183    2.2312   -2.9911 C   0  0  0  0  0  0  0  0  0  0  0  0
   11.2870    1.7049   -2.3507 C   0  0  0  0  0  0  0  0  0  0  0  0
  1 17  1  0  0  0  0
  2 19  1  0  0  0  0
  3 16  1  0  0  0  0
  3 24  1  0  0  0  0
  4 13  2  0  0  0  0
  5 16  2  0  0  0  0
  6 11  1  0  0  0  0
  6 13  1  0  0  0  0
  7  9  2  0  0  0  0
  7 10  1  0  0  0  0
  8  9  1  0  0  0  0
  8 11  2  0  0  0  0
  8 14  1  0  0  0  0
  9 12  1  0  0  0  0
 10 13  1  0  0  0  0
 10 16  1  0  0  0  0
 11 15  1  0  0  0  0
 12 19  1  0  0  0  0
 12 20  2  0  0  0  0
 14 17  2  0  0  0  0
 15 18  2  0  0  0  0
 17 18  1  0  0  0  0
 19 21  2  0  0  0  0
 20 22  1  0  0  0  0
 21 23  1  0  0  0  0
 22 23  2  0  0  0  0
 24 25  1  0  0  0  0
M  END
