823
 OpenBabel10141417503D

 28 31  0  0  1  0  0  0  0  0999 V2000
   -2.0878    0.2939   -1.8536 O   0  0  0  0  0  0  0  0  0  0  0  0
   -6.0501    0.6132   -8.9530 O   0  0  0  0  0  0  0  0  0  0  0  0
   -2.5491   -1.8614   -2.5344 O   0  0  0  0  0  0  0  0  0  0  0  0
   -7.3315    0.2099  -10.8281 O   0  0  0  0  0  0  0  0  0  0  0  0
   -2.1744    1.0452   -4.2989 C   0  0  1  0  0  0  0  0  0  0  0  0
   -1.7904    2.5365   -4.5468 C   0  0  2  0  0  0  0  0  0  0  0  0
   -2.6902    3.3138   -5.5123 C   0  0  1  0  0  0  0  0  0  0  0  0
   -2.6574    2.5856   -6.9004 C   0  0  2  0  0  0  0  0  0  0  0  0
   -1.2960    0.6557   -3.0346 C   0  0  2  0  0  0  0  0  0  0  0  0
   -1.8316    0.3873   -5.6534 C   0  0  0  0  0  0  0  0  0  0  0  0
   -1.4762    3.1124   -3.1853 C   0  0  0  0  0  0  0  0  0  0  0  0
   -2.6315    1.0237   -6.8218 C   0  0  0  0  0  0  0  0  0  0  0  0
   -3.7225    3.1819   -7.8775 C   0  0  2  0  0  0  0  0  0  0  0  0
   -0.6148    1.9931   -2.5974 C   0  0  0  0  0  0  0  0  0  0  0  0
   -4.0717    3.6956   -4.9407 C   0  0  0  0  0  0  0  0  0  0  0  0
   -3.6650    0.7432   -4.0234 C   0  0  0  0  0  0  0  0  0  0  0  0
   -5.0784    3.2537   -7.2085 C   0  0  0  0  0  0  0  0  0  0  0  0
   -5.1059    4.1163   -5.9742 C   0  0  0  0  0  0  0  0  0  0  0  0
   -3.7470    2.5145   -9.2717 C   0  0  0  0  0  0  0  0  0  0  0  0
   -5.1129    2.6146   -9.9636 C   0  0  0  0  0  0  0  0  0  0  0  0
   -0.2423   -0.3530   -3.2934 C   0  0  0  0  0  0  0  0  0  0  0  0
   -6.1796    2.6681   -7.7189 C   0  0  0  0  0  0  0  0  0  0  0  0
   -6.2326    2.0327   -9.0873 C   0  0  1  0  0  0  0  0  0  0  0  0
   -2.6228   -0.9497   -1.7235 C   0  0  0  0  0  0  0  0  0  0  0  0
    0.5654   -1.1990   -3.5018 C   0  0  0  0  0  0  0  0  0  0  0  0
   -3.4252   -1.0411   -0.4578 C   0  0  0  0  0  0  0  0  0  0  0  0
   -6.5516   -0.1576   -9.9601 C   0  0  0  0  0  0  0  0  0  0  0  0
   -5.8883   -1.5039   -9.9482 C   0  0  0  0  0  0  0  0  0  0  0  0
  1 24  1  0  0  0  0
  2 27  1  0  0  0  0
  3 24  2  0  0  0  0
  4 27  2  0  0  0  0
  5  6  1  0  0  0  0
  5  9  1  0  0  0  0
  5 10  1  0  0  0  0
  5 16  1  6  0  0  0
  6  7  1  0  0  0  0
  6 11  1  6  0  0  0
  7  8  1  0  0  0  0
  7 15  1  1  0  0  0
  8 12  1  6  0  0  0
  8 13  1  0  0  0  0
  9 14  1  0  0  0  0
  9 21  1  1  0  0  0
  9  1  1  0  0  0  0
 10 12  1  0  0  0  0
 11 14  1  0  0  0  0
 13 17  1  1  0  0  0
 13 19  1  0  0  0  0
 15 18  1  0  0  0  0
 17 18  1  0  0  0  0
 17 22  2  0  0  0  0
 19 20  1  0  0  0  0
 20 23  1  0  0  0  0
 21 25  3  0  0  0  0
 22 23  1  0  0  0  0
 23  2  1  6  0  0  0
 24 26  1  0  0  0  0
 27 28  1  0  0  0  0
M  END
