
 OpenBabel10141417483D

 25 26  0  0  0  0  0  0  0  0999 V2000
    4.5413   -1.8725    0.8526 C   0  0  0  0  0  0  0  0  0  0  0  0
    2.6830   -0.2516    0.9061 C   0  0  0  0  0  0  0  0  0  0  0  0
    0.4765   -0.0177   -8.7250 C   0  0  0  0  0  0  0  0  0  0  0  0
    0.6034   -0.4174   -7.4009 C   0  0  0  0  0  0  0  0  0  0  0  0
    2.2630   -5.6334    3.2769 C   0  0  0  0  0  0  0  0  0  0  0  0
    3.7069   -5.9050    1.3704 C   0  0  0  0  0  0  0  0  0  0  0  0
    1.9098   -4.3548    2.8172 C   0  0  0  0  0  0  0  0  0  0  0  0
    3.2795   -4.6699    0.8716 C   0  0  0  0  0  0  0  0  0  0  0  0
   -0.6065    0.7766   -9.0664 C   0  0  0  0  0  0  0  0  0  0  0  0
    1.4168   -0.4696   -3.3723 C   0  0  0  0  0  0  0  0  0  0  0  0
    1.1471   -1.7977   -2.6767 C   0  0  0  0  0  0  0  0  0  0  0  0
   -1.4095    0.7766   -6.9031 C   0  0  0  0  0  0  0  0  0  0  0  0
   -0.3549   -0.0131   -6.4692 C   0  0  0  0  0  0  0  0  0  0  0  0
    3.1960   -6.3861    2.5700 C   0  0  0  0  0  0  0  0  0  0  0  0
    2.4614   -3.8406    1.6351 C   0  0  0  0  0  0  0  0  0  0  0  0
   -0.2522   -0.3455   -5.0371 C   0  0  0  0  0  0  0  0  0  0  0  0
    2.8059   -1.8477   -0.9810 C   0  0  0  0  0  0  0  0  0  0  0  0
    3.0376   -1.7166    0.5400 C   0  0  0  0  0  0  0  0  0  0  0  0
    3.7053   -7.9220    3.1541 Cl  0  0  0  0  0  0  0  0  0  0  0  0
   -1.5524    1.1841   -8.1886 N   0  0  0  0  0  0  0  0  0  0  0  0
   -1.1712   -0.3576   -4.2567 O   0  0  0  0  0  0  0  0  0  0  0  0
    3.6906   -1.9967   -1.8166 O   0  0  0  0  0  0  0  0  0  0  0  0
    1.0671   -0.5060   -4.7564 O   0  0  0  0  0  0  0  0  0  0  0  0
    1.4835   -1.7245   -1.2840 O   0  0  0  0  0  0  0  0  0  0  0  0
    2.1572   -2.5407    1.3357 O   0  0  0  0  0  0  0  0  0  0  0  0
  4  3  2  0  0  0  0
  7  5  1  0  0  0  0
  8  6  2  0  0  0  0
  9  3  1  0  0  0  0
 11 10  1  0  0  0  0
 13  4  1  0  0  0  0
 13 12  2  0  0  0  0
 14  5  2  0  0  0  0
 14  6  1  0  0  0  0
 15  7  2  0  0  0  0
 15  8  1  0  0  0  0
 16 13  1  0  0  0  0
 18  1  1  0  0  0  0
 18  2  1  0  0  0  0
 18 17  1  0  0  0  0
 19 14  1  0  0  0  0
 20  9  2  0  0  0  0
 20 12  1  0  0  0  0
 21 16  2  0  0  0  0
 22 17  2  0  0  0  0
 23 10  1  0  0  0  0
 23 16  1  0  0  0  0
 24 11  1  0  0  0  0
 24 17  1  0  0  0  0
 25 15  1  0  0  0  0
 25 18  1  0  0  0  0
M  END
