773
 OpenBabel10141417513D

 42 48  0  0  1  0  0  0  0  0999 V2000
    3.4238    1.1526    6.6423 O   0  0  0  0  0  0  0  0  0  0  0  0
    1.2710   -2.0502    9.2807 O   0  0  0  0  0  0  0  0  0  0  0  0
    2.6653    3.1050    5.6173 O   0  0  0  0  0  0  0  0  0  0  0  0
    3.4121    3.2286    2.8471 O   0  0  0  0  0  0  0  0  0  0  0  0
    3.0684   -3.4624    9.0518 O   0  0  0  0  0  0  0  0  0  0  0  0
    6.2165    2.1007    5.9798 O   0  0  0  0  0  0  0  0  0  0  0  0
    1.1600    3.8708    3.3640 O   0  0  0  0  0  0  0  0  0  0  0  0
    6.1447    3.2971    3.3361 O   0  0  0  0  0  0  0  0  0  0  0  0
    2.6192    5.0679   10.4617 O   0  0  0  0  0  0  0  0  0  0  0  0
    4.5145    4.1935   11.6727 O   0  0  0  0  0  0  0  0  0  0  0  0
    2.3464   -0.7905   14.1643 O   0  0  0  0  0  0  0  0  0  0  0  0
    6.1711   -3.4515   12.8880 O   0  0  0  0  0  0  0  0  0  0  0  0
    4.5517   -2.6741   14.7961 O   0  0  0  0  0  0  0  0  0  0  0  0
    2.0851   -0.3742    7.9068 C   0  0  1  0  0  0  0  0  0  0  0  0
    3.2846   -1.1014    8.5033 C   0  0  1  0  0  0  0  0  0  0  0  0
    2.3494    1.0898    7.6027 C   0  0  1  0  0  0  0  0  0  0  0  0
    4.0888   -0.3226    9.5922 C   0  0  1  0  0  0  0  0  0  0  0  0
    2.7857    1.7810    8.8617 C   0  0  0  0  0  0  0  0  0  0  0  0
    3.7702    1.1819    9.6870 C   0  0  0  0  0  0  0  0  0  0  0  0
    1.0051   -0.6892    8.9199 C   0  0  0  0  0  0  0  0  0  0  0  0
    2.5745   -2.3356    8.9818 C   0  0  0  0  0  0  0  0  0  0  0  0
    3.7969    2.4814    6.2091 C   0  0  2  0  0  0  0  0  0  0  0  0
    4.1183   -1.0026   10.9768 C   0  0  0  0  0  0  0  0  0  0  0  0
    4.9991    2.3450    5.2406 C   0  0  1  0  0  0  0  0  0  0  0  0
    3.9212    4.1562    3.8151 C   0  0  1  0  0  0  0  0  0  0  0  0
    5.2193    3.6038    4.3941 C   0  0  2  0  0  0  0  0  0  0  0  0
    2.9264    4.3486    4.9532 C   0  0  1  0  0  0  0  0  0  0  0  0
    2.3123    3.0781    9.1131 C   0  0  0  0  0  0  0  0  0  0  0  0
    4.4432    1.9957   10.6161 C   0  0  0  0  0  0  0  0  0  0  0  0
    1.6085    4.8079    4.3421 C   0  0  0  0  0  0  0  0  0  0  0  0
    2.9304    3.7970   10.1016 C   0  0  0  0  0  0  0  0  0  0  0  0
    3.9969    3.2885   10.8005 C   0  0  0  0  0  0  0  0  0  0  0  0
    5.1290   -1.9351   11.2624 C   0  0  0  0  0  0  0  0  0  0  0  0
    3.1881   -0.7061   11.9962 C   0  0  0  0  0  0  0  0  0  0  0  0
    2.1186    3.5849    2.3504 C   0  0  1  0  0  0  0  0  0  0  0  0
    3.2980   -1.2497   13.2903 C   0  0  0  0  0  0  0  0  0  0  0  0
    5.2204   -2.5246   12.5268 C   0  0  0  0  0  0  0  0  0  0  0  0
    3.6531    5.3256   11.4326 C   0  0  0  0  0  0  0  0  0  0  0  0
    4.3372   -2.1437   13.5482 C   0  0  0  0  0  0  0  0  0  0  0  0
    2.1773    4.6932    1.3063 C   0  0  0  0  0  0  0  0  0  0  0  0
    2.3935   -1.2675   15.5046 C   0  0  0  0  0  0  0  0  0  0  0  0
    6.6150   -4.2909   11.8237 C   0  0  0  0  0  0  0  0  0  0  0  0
  2 20  1  0  0  0  0
  2 21  1  0  0  0  0
  3 22  1  0  0  0  0
  4 35  1  0  0  0  0
  5 21  2  0  0  0  0
  7 30  1  0  0  0  0
  7 35  1  0  0  0  0
  9 31  1  0  0  0  0
  9 38  1  0  0  0  0
 10 32  1  0  0  0  0
 10 38  1  0  0  0  0
 11 36  1  0  0  0  0
 11 41  1  0  0  0  0
 12 37  1  0  0  0  0
 12 42  1  0  0  0  0
 13 39  1  0  0  0  0
 14 15  1  0  0  0  0
 14 16  1  0  0  0  0
 14 20  1  6  0  0  0
 15 17  1  0  0  0  0
 15 21  1  1  0  0  0
 16 18  1  0  0  0  0
 16  1  1  6  0  0  0
 17 19  1  0  0  0  0
 17 23  1  1  0  0  0
 18 19  1  0  0  0  0
 18 28  2  0  0  0  0
 19 29  2  0  0  0  0
 22 24  1  0  0  0  0
 22  1  1  6  0  0  0
 23 33  2  0  0  0  0
 23 34  1  0  0  0  0
 24  6  1  1  0  0  0
 24 26  1  0  0  0  0
 25  4  1  1  0  0  0
 25 26  1  0  0  0  0
 25 27  1  0  0  0  0
 26  8  1  6  0  0  0
 27  3  1  6  0  0  0
 27 30  1  0  0  0  0
 28 31  1  0  0  0  0
 29 32  1  0  0  0  0
 31 32  2  0  0  0  0
 33 37  1  0  0  0  0
 34 36  2  0  0  0  0
 35 40  1  6  0  0  0
 36 39  1  0  0  0  0
 37 39  2  0  0  0  0
M  END
