1628
 OpenBabel10141417513D

 24 26  0  0  0  0  0  0  0  0999 V2000
    1.5728   -0.6888   -0.1559 Cl  0  0  0  0  0  0  0  0  0  0  0  0
    6.3873    6.9031   -2.5657 S   0  0  0  0  0  0  0  0  0  0  0  0
    7.3939    6.7315   -3.6019 O   0  0  0  0  0  0  0  0  0  0  0  0
    5.1379    7.5742   -2.8495 O   0  0  0  0  0  0  0  0  0  0  0  0
    5.4321   -0.7368    0.7803 N   0  0  0  0  0  0  0  0  0  0  0  0
    9.2155    2.1146    1.3205 N   0  0  0  0  0  0  0  0  0  0  0  0
    5.3810    2.7316   -0.8809 C   0  0  0  0  0  0  0  0  0  0  0  0
    5.0227    1.3980   -0.3149 C   0  0  0  0  0  0  0  0  0  0  0  0
    5.9979    5.2902   -1.9265 C   0  0  0  0  0  0  0  0  0  0  0  0
    5.8859    0.4869    0.3526 C   0  0  0  0  0  0  0  0  0  0  0  0
    6.5697    2.9624   -1.5959 C   0  0  0  0  0  0  0  0  0  0  0  0
    4.4887    3.8240   -0.7619 C   0  0  0  0  0  0  0  0  0  0  0  0
    6.8984    4.2367   -2.0816 C   0  0  0  0  0  0  0  0  0  0  0  0
    4.7733    5.0815   -1.3035 C   0  0  0  0  0  0  0  0  0  0  0  0
    7.3207    0.6789    0.7141 C   0  0  0  0  0  0  0  0  0  0  0  0
    3.6723    0.9838   -0.4664 C   0  0  0  0  0  0  0  0  0  0  0  0
    7.1501    7.7112   -1.1829 C   0  0  0  0  0  0  0  0  0  0  0  0
    8.1948   -0.4190    0.8413 C   0  0  0  0  0  0  0  0  0  0  0  0
    3.2196   -0.2391    0.0062 C   0  0  0  0  0  0  0  0  0  0  0  0
    7.9025    1.9067    1.0189 C   0  0  0  0  0  0  0  0  0  0  0  0
    4.1334   -1.0692    0.6054 C   0  0  0  0  0  0  0  0  0  0  0  0
    9.5375   -0.2528    1.1955 C   0  0  0  0  0  0  0  0  0  0  0  0
   10.0183    1.0304    1.4026 C   0  0  0  0  0  0  0  0  0  0  0  0
   11.4800    1.2692    1.6420 C   0  0  0  0  0  0  0  0  0  0  0  0
  1 19  1  0  0  0  0
  2  3  2  0  0  0  0
  2  4  2  0  0  0  0
  2  9  1  0  0  0  0
  2 17  1  0  0  0  0
  5 10  1  0  0  0  0
  5 21  2  0  0  0  0
  6 20  1  0  0  0  0
  6 23  2  0  0  0  0
  7  8  1  0  0  0  0
  7 11  2  0  0  0  0
  7 12  1  0  0  0  0
  8 10  2  0  0  0  0
  8 16  1  0  0  0  0
  9 13  2  0  0  0  0
  9 14  1  0  0  0  0
 10 15  1  0  0  0  0
 11 13  1  0  0  0  0
 12 14  2  0  0  0  0
 15 18  1  0  0  0  0
 15 20  2  0  0  0  0
 16 19  2  0  0  0  0
 18 22  2  0  0  0  0
 19 21  1  0  0  0  0
 22 23  1  0  0  0  0
 23 24  1  0  0  0  0
M  END
