
 OpenBabel10141417483D

 19 20  0  0  0  0  0  0  0  0999 V2000
    3.9721    3.3974    0.0339 C   0  0  0  0  0  0  0  0  0  0  0  0
    9.3537    1.0268   -0.7009 C   0  0  0  0  0  0  0  0  0  0  0  0
    4.6974    3.5770   -1.2878 C   0  0  0  0  0  0  0  0  0  0  0  0
    8.0570   -5.7841    0.7288 C   0  0  0  0  0  0  0  0  0  0  0  0
    9.0366   -4.6789    1.1138 C   0  0  0  0  0  0  0  0  0  0  0  0
    7.2182   -5.3938   -0.4829 C   0  0  0  0  0  0  0  0  0  0  0  0
    8.3407   -3.3203    1.2052 C   0  0  0  0  0  0  0  0  0  0  0  0
    6.6011   -4.0084   -0.3017 C   0  0  0  0  0  0  0  0  0  0  0  0
    6.5079    0.5108   -1.9753 C   0  0  0  0  0  0  0  0  0  0  0  0
    7.5446   -0.3172   -1.8188 C   0  0  0  0  0  0  0  0  0  0  0  0
    6.2492    1.8047   -1.3238 C   0  0  0  0  0  0  0  0  0  0  0  0
    9.3755   -1.4190   -0.8256 C   0  0  0  0  0  0  0  0  0  0  0  0
    8.4561   -2.6172   -1.1659 C   0  0  3  0  0  0  0  0  0  0  0  0
    8.7331   -0.2061   -1.1237 N   0  0  0  0  0  0  0  0  0  0  0  0
    7.5883   -2.9579   -0.0074 N   0  0  0  0  0  0  0  0  0  0  0  0
    6.9227    2.3288   -0.4571 O   0  0  0  0  0  0  0  0  0  0  0  0
   10.4793   -1.5295   -0.2994 O   0  0  0  0  0  0  0  0  0  0  0  0
    5.0934    2.3082   -1.8307 O   0  0  0  0  0  0  0  0  0  0  0  0
    7.4579   -1.9059   -2.5416 S   0  0  0  0  0  0  0  0  0  0  0  0
  3  1  1  0  0  0  0
  5  4  1  0  0  0  0
  6  4  1  0  0  0  0
  7  5  1  0  0  0  0
  8  6  1  0  0  0  0
 10  9  2  0  0  0  0
 11  9  1  0  0  0  0
 13 12  1  0  0  0  0
 14  2  1  0  0  0  0
 14 10  1  0  0  0  0
 14 12  1  0  0  0  0
 15  7  1  0  0  0  0
 15  8  1  0  0  0  0
 15 13  1  0  0  0  0
 16 11  2  0  0  0  0
 17 12  2  0  0  0  0
 18  3  1  0  0  0  0
 18 11  1  0  0  0  0
 19 10  1  0  0  0  0
 19 13  1  0  0  0  0
M  END
