
 OpenBabel10141417513D

 68 71  0  0  1  0  0  0  0  0999 V2000
   -8.1095    6.3329    0.2607 C   0  0  0  0  0  0  0  0  0  0  0  0
   -7.9915    5.3076   -0.4137 O   0  0  0  0  0  0  0  0  0  0  0  0
   -8.8329    6.2819    1.6405 C   0  0  2  0  0  0  0  0  0  0  0  0
   -9.7191    8.8208    0.7119 O   0  0  0  0  0  0  0  0  0  0  0  0
   -9.1703    7.4490    2.5196 N   0  0  0  0  0  0  0  0  0  0  0  0
   -9.8346    8.5454    1.8833 C   0  0  0  0  0  0  0  0  0  0  0  0
   -7.5258    7.5079   -0.0787 O   0  0  0  0  0  0  0  0  0  0  0  0
   -6.6548    7.4689   -1.2461 C   0  0  0  0  0  0  0  0  0  0  0  0
   -7.4057    7.1769   -2.5744 C   0  0  0  0  0  0  0  0  0  0  0  0
   -5.8822    8.8133   -1.3470 C   0  0  1  0  0  0  0  0  0  0  0  0
   -6.7998   10.0320   -1.4709 C   0  0  0  0  0  0  0  0  0  0  0  0
   -6.4662    6.6311   -3.6487 C   0  0  0  0  0  0  0  0  0  0  0  0
   -7.9615    5.2267    2.3992 C   0  0  0  0  0  0  0  0  0  0  0  0
   -8.3293    4.9476    3.8466 C   0  0  0  0  0  0  0  0  0  0  0  0
   -9.6093    7.0639    3.8682 C   0  0  0  0  0  0  0  0  0  0  0  0
   -8.5615    6.2409    4.5964 C   0  0  0  0  0  0  0  0  0  0  0  0
   -4.8053    8.9751   -0.2537 C   0  0  0  0  0  0  0  0  0  0  0  0
   -5.1926    9.1801    1.2290 C   0  0  1  0  0  0  0  0  0  0  0  0
   -3.8787    9.2906    2.0126 C   0  0  0  0  0  0  0  0  0  0  0  0
   -6.0342   10.4219    1.5035 C   0  0  0  0  0  0  0  0  0  0  0  0
   -6.2892   10.5676    2.9909 C   0  0  0  0  0  0  0  0  0  0  0  0
   -3.9527    9.7300    3.4784 C   0  0  2  0  0  0  0  0  0  0  0  0
   -5.0072   10.8249    3.7674 C   0  0  2  0  0  0  0  0  0  0  0  0
   -9.9367   11.6685    2.6698 O   0  0  0  0  0  0  0  0  0  0  0  0
  -10.9003    9.3184    2.6736 C   0  0  0  0  0  0  0  0  0  0  0  0
  -10.4733   10.6057    3.4859 C   0  0  2  0  0  0  0  0  0  0  0  0
   -6.8818    6.8135   -5.1263 C   0  0  2  0  0  0  0  0  0  0  0  0
   -6.7180    5.4562   -5.8222 C   0  0  0  0  0  0  0  0  0  0  0  0
   -9.6539   12.8752    3.4167 C   0  0  2  0  0  0  0  0  0  0  0  0
  -10.9636   13.4841    3.9024 C   0  0  0  0  0  0  0  0  0  0  0  0
  -11.7443   11.0861    4.2880 C   0  0  2  0  0  0  0  0  0  0  0  0
  -11.6021   12.5001    4.8832 C   0  0  0  0  0  0  0  0  0  0  0  0
   -8.6502   13.8516    2.7361 C   0  0  0  0  0  0  0  0  0  0  0  0
   -6.0387    7.9139   -5.7622 C   0  0  0  0  0  0  0  0  0  0  0  0
   -6.1298    8.4354   -7.0122 C   0  0  0  0  0  0  0  0  0  0  0  0
   -7.1349    7.9430   -8.0291 C   0  0  0  0  0  0  0  0  0  0  0  0
   -8.9211   14.5130    1.3664 C   0  0  1  0  0  0  0  0  0  0  0  0
   -6.8967   16.1948    1.3202 C   0  0  0  0  0  0  0  0  0  0  0  0
   -7.5878   14.9847    0.7250 C   0  0  0  0  0  0  0  0  0  0  0  0
   -5.0977    9.4694   -7.5018 C   0  0  2  0  0  0  0  0  0  0  0  0
   -5.4996   10.9639   -7.8261 C   0  0  1  0  0  0  0  0  0  0  0  0
   -6.8769   11.1007   -8.1790 O   0  0  0  0  0  0  0  0  0  0  0  0
   -7.0959   14.3519   -0.3625 C   0  0  0  0  0  0  0  0  0  0  0  0
   -5.9863   14.8091   -1.1832 C   0  0  0  0  0  0  0  0  0  0  0  0
   -7.2614   12.4326   -8.4933 C   0  0  0  0  0  0  0  0  0  0  0  0
   -5.0141   11.8845   -6.6695 C   0  0  0  0  0  0  0  0  0  0  0  0
   -4.1909   13.1471   -7.0434 C   0  0  2  0  0  0  0  0  0  0  0  0
   -2.8623   13.2267   -6.2477 C   0  0  0  0  0  0  0  0  0  0  0  0
   -3.7489   13.7221   -3.8892 C   0  0  0  0  0  0  0  0  0  0  0  0
   -4.4087   14.5452   -3.0563 C   0  0  0  0  0  0  0  0  0  0  0  0
   -5.4251   14.0582   -2.1434 C   0  0  0  0  0  0  0  0  0  0  0  0
   -2.7309   14.0813   -4.9486 C   0  0  2  0  0  0  0  0  0  0  0  0
   -5.2939   11.6225   -5.4975 O   0  0  0  0  0  0  0  0  0  0  0  0
   -4.4651    8.9038   -8.6702 O   0  0  0  0  0  0  0  0  0  0  0  0
   -5.0205   14.4232   -6.9953 C   0  0  0  0  0  0  0  0  0  0  0  0
   -2.5859   15.5844   -5.2363 C   0  0  0  0  0  0  0  0  0  0  0  0
   -9.7873   15.6485    1.5394 O   0  0  0  0  0  0  0  0  0  0  0  0
  -10.1532   16.2928    0.3164 C   0  0  0  0  0  0  0  0  0  0  0  0
   -5.4181    6.0495   -3.3520 O   0  0  0  0  0  0  0  0  0  0  0  0
   -9.4800   10.2521    4.4451 O   0  0  0  0  0  0  0  0  0  0  0  0
  -12.0334    8.8362    2.6466 O   0  0  0  0  0  0  0  0  0  0  0  0
   -2.6660   10.2894    3.8218 O   0  0  0  0  0  0  0  0  0  0  0  0
   -5.3911   10.8624    5.1619 O   0  0  0  0  0  0  0  0  0  0  0  0
  -12.1295   10.1287    5.4387 C   0  0  0  0  0  0  0  0  0  0  0  0
   -1.6041    9.3488    3.8549 C   0  0  0  0  0  0  0  0  0  0  0  0
   -4.3024   11.1712    6.0345 C   0  0  0  0  0  0  0  0  0  0  0  0
   -4.7812   11.2633    7.4763 C   0  0  0  0  0  0  0  0  0  0  0  0
   -3.6749   11.5471    8.3269 O   0  0  0  0  0  0  0  0  0  0  0  0
  1  7  1  0  0  0  0
  1  2  2  0  0  0  0
  3  1  1  6  0  0  0
  3 13  1  0  0  0  0
  3  5  1  0  0  0  0
  4  6  2  0  0  0  0
  5  6  1  0  0  0  0
  5 15  1  0  0  0  0
  6 25  1  0  0  0  0
  8  7  1  0  0  0  0
  8  9  1  0  0  0  0
  9 12  1  0  0  0  0
 10 11  1  1  0  0  0
 10 17  1  0  0  0  0
 10  8  1  0  0  0  0
 12 27  1  0  0  0  0
 12 59  2  0  0  0  0
 13 14  1  0  0  0  0
 14 16  1  0  0  0  0
 15 16  1  0  0  0  0
 18 17  1  6  0  0  0
 18 20  1  0  0  0  0
 18 19  1  0  0  0  0
 19 22  1  0  0  0  0
 20 21  1  0  0  0  0
 21 23  1  0  0  0  0
 22 23  1  0  0  0  0
 22 62  1  6  0  0  0
 23 63  1  1  0  0  0
 24 26  1  0  0  0  0
 25 26  1  0  0  0  0
 25 61  2  0  0  0  0
 26 31  1  0  0  0  0
 26 60  1  1  0  0  0
 27 34  1  0  0  0  0
 27 28  1  6  0  0  0
 29 24  1  6  0  0  0
 29 30  1  0  0  0  0
 29 33  1  0  0  0  0
 30 32  1  0  0  0  0
 31 32  1  0  0  0  0
 31 64  1  1  0  0  0
 33 37  1  0  0  0  0
 34 35  2  0  0  0  0
 35 40  1  0  0  0  0
 35 36  1  0  0  0  0
 37 39  1  0  0  0  0
 37 57  1  6  0  0  0
 38 39  1  0  0  0  0
 39 43  2  0  0  0  0
 40 41  1  0  0  0  0
 40 54  1  6  0  0  0
 41 46  1  0  0  0  0
 41 42  1  1  0  0  0
 42 45  1  0  0  0  0
 43 44  1  0  0  0  0
 44 51  2  0  0  0  0
 46 47  1  0  0  0  0
 46 53  2  0  0  0  0
 47 48  1  0  0  0  0
 47 55  1  1  0  0  0
 48 52  1  0  0  0  0
 49 50  2  0  0  0  0
 49 52  1  0  0  0  0
 50 51  1  0  0  0  0
 52 56  1  6  0  0  0
 57 58  1  0  0  0  0
 62 65  1  0  0  0  0
 63 66  1  0  0  0  0
 66 67  1  0  0  0  0
 67 68  1  0  0  0  0
M  END
