426
 OpenBabel10141417513D

 23 24  0  0  0  0  0  0  0  0999 V2000
    0.3298    0.1842    0.6610 O   0  0  0  0  0  0  0  0  0  0  0  0
   -1.9125    0.6680   -3.0575 O   0  0  0  0  0  0  0  0  0  0  0  0
   -0.7739   -1.5529    1.6708 O   0  0  0  0  0  0  0  0  0  0  0  0
   -1.2106   -1.3675   -3.8637 O   0  0  0  0  0  0  0  0  0  0  0  0
   -1.6714    3.9445    1.1591 N   0  0  0  0  0  0  0  0  0  0  0  0
   -2.2529    5.9744    1.8657 N   0  0  0  0  0  0  0  0  0  0  0  0
    0.3592    4.4884   -0.0624 N   0  0  0  0  0  0  0  0  0  0  0  0
    0.8174    6.8443   -0.0278 N   0  0  0  0  0  0  0  0  0  0  0  0
    2.2047    5.3628   -1.1513 N   0  0  0  0  0  0  0  0  0  0  0  0
   -1.8017    0.4890   -0.5918 C   0  0  0  0  0  0  0  0  0  0  0  0
   -1.8645    2.0258   -0.4274 C   0  0  0  0  0  0  0  0  0  0  0  0
   -1.6620    2.5010    1.0182 C   0  0  0  0  0  0  0  0  0  0  0  0
   -0.3654   -0.0683   -0.5709 C   0  0  0  0  0  0  0  0  0  0  0  0
   -2.4915    0.0446   -1.8966 C   0  0  0  0  0  0  0  0  0  0  0  0
   -0.7173    4.7962    0.6765 C   0  0  0  0  0  0  0  0  0  0  0  0
   -2.5586    4.6920    1.8861 C   0  0  0  0  0  0  0  0  0  0  0  0
   -1.1034    6.0499    1.1158 C   0  0  0  0  0  0  0  0  0  0  0  0
   -0.2827    7.1006    0.7320 C   0  0  0  0  0  0  0  0  0  0  0  0
    0.0844   -0.6835    1.6769 C   0  0  0  0  0  0  0  0  0  0  0  0
   -1.3713   -0.1628   -3.9933 C   0  0  0  0  0  0  0  0  0  0  0  0
    1.0886    5.5705   -0.3645 C   0  0  0  0  0  0  0  0  0  0  0  0
    0.9895   -0.4058    2.8431 C   0  0  0  0  0  0  0  0  0  0  0  0
   -1.0602    0.5878   -5.2540 C   0  0  0  0  0  0  0  0  0  0  0  0
  1 13  1  0  0  0  0
  1 19  1  0  0  0  0
  2 14  1  0  0  0  0
  2 20  1  0  0  0  0
  3 19  2  0  0  0  0
  4 20  2  0  0  0  0
  5 12  1  0  0  0  0
  5 15  1  0  0  0  0
  5 16  1  0  0  0  0
  6 16  2  0  0  0  0
  6 17  1  0  0  0  0
  7 15  2  0  0  0  0
  7 21  1  0  0  0  0
  8 18  1  0  0  0  0
  8 21  2  0  0  0  0
  9 21  1  0  0  0  0
 10 11  1  0  0  0  0
 10 13  1  0  0  0  0
 10 14  1  0  0  0  0
 11 12  1  0  0  0  0
 15 17  1  0  0  0  0
 17 18  2  0  0  0  0
 19 22  1  0  0  0  0
 20 23  1  0  0  0  0
M  END
