949
 OpenBabel10141417483D

 17 17  0  0  0  0  0  0  0  0999 V2000
    0.2251    1.3833   -1.1560 O   0  0  0  0  0  0  0  0  0  0  0  0
   -2.3006   -1.9509   -1.3685 O   0  0  0  0  0  0  0  0  0  0  0  0
    0.4196    0.3858    0.9030 O   0  0  0  0  0  0  0  0  0  0  0  0
   -3.3284   -2.0211    0.6795 O   0  0  0  0  0  0  0  0  0  0  0  0
    1.6092    2.2314    0.3424 N   0  0  0  0  0  0  0  0  0  0  0  0
   -1.6084   -3.3961    0.1293 N   0  0  0  0  0  0  0  0  0  0  0  0
   -2.1005    0.4853   -1.1650 C   0  0  0  0  0  0  0  0  0  0  0  0
   -2.7161    1.8231   -1.5652 C   0  0  0  0  0  0  0  0  0  0  0  0
   -0.6308    0.3200   -1.6123 C   0  0  0  0  0  0  0  0  0  0  0  0
   -2.9458   -0.7081   -1.6670 C   0  0  0  0  0  0  0  0  0  0  0  0
   -3.4208    2.0029   -2.7669 C   0  0  0  0  0  0  0  0  0  0  0  0
   -2.6141    2.9185   -0.6917 C   0  0  0  0  0  0  0  0  0  0  0  0
   -4.0191    3.2256   -3.0764 C   0  0  0  0  0  0  0  0  0  0  0  0
   -3.2262    4.1378   -0.9956 C   0  0  0  0  0  0  0  0  0  0  0  0
   -3.9258    4.2920   -2.1894 C   0  0  0  0  0  0  0  0  0  0  0  0
    0.7026    1.2560    0.1019 C   0  0  0  0  0  0  0  0  0  0  0  0
   -2.5167   -2.4268   -0.1234 C   0  0  0  0  0  0  0  0  0  0  0  0
  1  9  1  0  0  0  0
  1 16  1  0  0  0  0
  2 10  1  0  0  0  0
  2 17  1  0  0  0  0
  3 16  2  0  0  0  0
  4 17  2  0  0  0  0
  5 16  1  0  0  0  0
  6 17  1  0  0  0  0
  7  8  1  0  0  0  0
  7  9  1  0  0  0  0
  7 10  1  0  0  0  0
  8 11  2  0  0  0  0
  8 12  1  0  0  0  0
 11 13  1  0  0  0  0
 12 14  2  0  0  0  0
 13 15  2  0  0  0  0
 14 15  1  0  0  0  0
M  END
