
 OpenBabel10141418013D

 19 20  0  0  0  0  0  0  0  0999 V2000
   -1.8823   -0.4598    0.6807 C   0  0  0  0  0  0  0  0  0  0  0  0
   -0.9911   -1.4965    0.9327 C   0  0  0  0  0  0  0  0  0  0  0  0
   -1.4190    0.7263    0.1228 C   0  0  0  0  0  0  0  0  0  0  0  0
    0.3629   -1.3473    0.6188 C   0  0  0  0  0  0  0  0  0  0  0  0
   -0.0639    0.8731   -0.1865 C   0  0  0  0  0  0  0  0  0  0  0  0
    3.0781   -1.1121   -0.6628 C   0  0  0  0  0  0  0  0  0  0  0  0
    2.9369    1.2471   -0.2550 C   0  0  0  0  0  0  0  0  0  0  0  0
    4.4345   -0.9798   -0.9646 C   0  0  0  0  0  0  0  0  0  0  0  0
    4.2991    1.3879   -0.5524 C   0  0  0  0  0  0  0  0  0  0  0  0
    7.3006   -0.8537   -1.4866 C   0  0  0  0  0  0  0  0  0  0  0  0
    8.7694   -0.5989   -1.7633 C   0  0  0  0  0  0  0  0  0  0  0  0
    0.8613   -0.1602    0.0477 C   0  0  0  0  0  0  0  0  0  0  0  0
    2.2959   -0.0063   -0.2915 C   0  0  0  0  0  0  0  0  0  0  0  0
    5.0569    0.2678   -0.8973 C   0  0  0  0  0  0  0  0  0  0  0  0
    6.5119    0.4126   -1.1946 C   0  0  0  0  0  0  0  0  0  0  0  0
    9.5021   -0.0149   -0.5784 C   0  0  0  0  0  0  0  0  0  0  0  0
    7.0366    1.5248   -1.2267 O   0  0  0  0  0  0  0  0  0  0  0  0
   10.0161   -0.6857    0.2919 O   0  0  0  0  0  0  0  0  0  0  0  0
    9.5335    1.3381   -0.5804 O   0  0  0  0  0  0  0  0  0  0  0  0
  2  1  2  0  0  0  0
  3  1  1  0  0  0  0
  4  2  1  0  0  0  0
  5  3  2  0  0  0  0
  8  6  1  0  0  0  0
  9  7  2  0  0  0  0
 11 10  1  0  0  0  0
 12  4  2  0  0  0  0
 12  5  1  0  0  0  0
 13  6  2  0  0  0  0
 13  7  1  0  0  0  0
 13 12  1  0  0  0  0
 14  8  2  0  0  0  0
 14  9  1  0  0  0  0
 15 10  1  0  0  0  0
 15 14  1  0  0  0  0
 16 11  1  0  0  0  0
 17 15  2  0  0  0  0
 18 16  2  0  0  0  0
 19 16  1  0  0  0  0
M  END
