800
 OpenBabel10141417493D

 21 23  0  0  1  0  0  0  0  0999 V2000
    1.1756   -0.5040   -0.4433 Cl  0  0  0  0  0  0  0  0  0  0  0  0
    5.9650   -2.1015   -0.0963 O   0  0  0  0  0  0  0  0  0  0  0  0
    3.3089   -2.5145   -0.5093 O   0  0  0  0  0  0  0  0  0  0  0  0
    4.6079    4.2776    6.1482 O   0  0  0  0  0  0  0  0  0  0  0  0
    3.6709    4.3137   -0.5606 N   0  0  0  0  0  0  0  0  0  0  0  0
    5.3004    2.7057    0.7003 C   0  0  3  0  0  0  0  0  0  0  0  0
    4.7015    1.3317    0.3672 C   0  0  0  0  0  0  0  0  0  0  0  0
    5.0151    3.7348   -0.4385 C   0  0  0  0  0  0  0  0  0  0  0  0
    3.3141    1.1342    0.1568 C   0  0  0  0  0  0  0  0  0  0  0  0
    2.3707    2.3160    0.2355 C   0  0  0  0  0  0  0  0  0  0  0  0
    2.6278    3.3381   -0.8758 C   0  0  0  0  0  0  0  0  0  0  0  0
    5.0804    3.1393    2.1546 C   0  0  0  0  0  0  0  0  0  0  0  0
    5.5825    0.2312    0.2745 C   0  0  0  0  0  0  0  0  0  0  0  0
    2.8531   -0.1679   -0.1414 C   0  0  0  0  0  0  0  0  0  0  0  0
    5.1055   -1.0427   -0.0139 C   0  0  0  0  0  0  0  0  0  0  0  0
    5.4250    2.2584    3.2010 C   0  0  0  0  0  0  0  0  0  0  0  0
    4.5992    4.4090    2.5099 C   0  0  0  0  0  0  0  0  0  0  0  0
    3.7472   -1.2456   -0.2216 C   0  0  0  0  0  0  0  0  0  0  0  0
    5.2707    2.6213    4.5427 C   0  0  0  0  0  0  0  0  0  0  0  0
    4.4416    4.7742    3.8508 C   0  0  0  0  0  0  0  0  0  0  0  0
    4.7762    3.8791    4.8559 C   0  0  0  0  0  0  0  0  0  0  0  0
  1 14  1  0  0  0  0
  2 15  1  0  0  0  0
  3 18  1  0  0  0  0
  4 21  1  0  0  0  0
  5  8  1  0  0  0  0
  5 11  1  0  0  0  0
  6  7  1  0  0  0  0
  6  8  1  0  0  0  0
  6 12  1  0  0  0  0
  7  9  1  0  0  0  0
  7 13  2  0  0  0  0
  9 10  1  0  0  0  0
  9 14  2  0  0  0  0
 10 11  1  0  0  0  0
 12 16  2  0  0  0  0
 12 17  1  0  0  0  0
 13 15  1  0  0  0  0
 14 18  1  0  0  0  0
 15 18  2  0  0  0  0
 16 19  1  0  0  0  0
 17 20  2  0  0  0  0
 19 21  2  0  0  0  0
 20 21  1  0  0  0  0
M  END
