1039
 OpenBabel10141417503D

 25 26  0  0  0  0  0  0  0  0999 V2000
    4.2212    2.9891    4.4525 Cl  0  0  0  0  0  0  0  0  0  0  0  0
    9.1144   -4.8007   -0.6847 O   0  0  0  0  0  0  0  0  0  0  0  0
    8.6528   -6.7349   -3.7792 O   0  0  0  0  0  0  0  0  0  0  0  0
    9.0439   -4.4928   -3.5530 O   0  0  0  0  0  0  0  0  0  0  0  0
    5.6018    0.3888   -1.4607 O   0  0  0  0  0  0  0  0  0  0  0  0
    8.8619   -5.9229   -1.5496 C   0  0  0  0  0  0  0  0  0  0  0  0
   10.0553   -6.8976   -1.3811 C   0  0  0  0  0  0  0  0  0  0  0  0
    7.5963   -6.6554   -1.0726 C   0  0  0  0  0  0  0  0  0  0  0  0
    8.8437   -5.5949   -3.0582 C   0  0  0  0  0  0  0  0  0  0  0  0
    8.9608   -6.6480   -5.1771 C   0  0  0  0  0  0  0  0  0  0  0  0
    8.2686   -3.7221   -0.6372 C   0  0  0  0  0  0  0  0  0  0  0  0
    7.1993   -3.4536   -1.4910 C   0  0  0  0  0  0  0  0  0  0  0  0
    8.5612   -2.7913    0.3672 C   0  0  0  0  0  0  0  0  0  0  0  0
    6.7841   -1.3260   -0.3883 C   0  0  0  0  0  0  0  0  0  0  0  0
   10.1059   -7.6168   -5.4284 C   0  0  0  0  0  0  0  0  0  0  0  0
    7.7024   -7.0216   -5.9361 C   0  0  0  0  0  0  0  0  0  0  0  0
    6.4783   -2.2580   -1.3843 C   0  0  0  0  0  0  0  0  0  0  0  0
    7.8221   -1.6032    0.5005 C   0  0  0  0  0  0  0  0  0  0  0  0
    6.0120   -0.0532   -0.3928 C   0  0  0  0  0  0  0  0  0  0  0  0
    5.6725    0.6881    0.8455 C   0  0  0  0  0  0  0  0  0  0  0  0
    5.4757    0.0394    2.0674 C   0  0  0  0  0  0  0  0  0  0  0  0
    5.4227    2.0740    0.7552 C   0  0  0  0  0  0  0  0  0  0  0  0
    5.0507    0.7559    3.1857 C   0  0  0  0  0  0  0  0  0  0  0  0
    4.9847    2.7851    1.8703 C   0  0  0  0  0  0  0  0  0  0  0  0
    4.7952    2.1247    3.0817 C   0  0  0  0  0  0  0  0  0  0  0  0
  1 25  1  0  0  0  0
  2  6  1  0  0  0  0
  2 11  1  0  0  0  0
  3  9  1  0  0  0  0
  3 10  1  0  0  0  0
  4  9  2  0  0  0  0
  5 19  2  0  0  0  0
  6  7  1  0  0  0  0
  6  8  1  0  0  0  0
  6  9  1  0  0  0  0
 10 15  1  0  0  0  0
 10 16  1  0  0  0  0
 11 12  2  0  0  0  0
 11 13  1  0  0  0  0
 12 17  1  0  0  0  0
 13 18  2  0  0  0  0
 14 17  2  0  0  0  0
 14 18  1  0  0  0  0
 14 19  1  0  0  0  0
 19 20  1  0  0  0  0
 20 21  2  0  0  0  0
 20 22  1  0  0  0  0
 21 23  1  0  0  0  0
 22 24  2  0  0  0  0
 23 25  2  0  0  0  0
 24 25  1  0  0  0  0
M  END
