
 OpenBabel10141418013D

 19 21  0  0  0  0  0  0  0  0999 V2000
   -1.2228   -0.5335   -0.0251 C   0  0  0  0  0  0  0  0  0  0  0  0
   -0.6380    0.0212   -1.1617 C   0  0  0  0  0  0  0  0  0  0  0  0
   -0.4270   -0.8919    1.0614 C   0  0  0  0  0  0  0  0  0  0  0  0
    0.7431    0.2204   -1.2111 C   0  0  0  0  0  0  0  0  0  0  0  0
    0.9541   -0.6925    1.0147 C   0  0  0  0  0  0  0  0  0  0  0  0
    3.0457    0.1010   -0.1657 C   0  0  0  0  0  0  0  0  0  0  0  0
    7.1797    0.2149   -1.8605 C   0  0  0  0  0  0  0  0  0  0  0  0
    7.4282   -2.1632   -1.2092 C   0  0  0  0  0  0  0  0  0  0  0  0
    3.8110   -1.1324   -0.6764 C   0  0  0  0  0  0  0  0  0  0  0  0
    5.6650    0.0842   -1.7060 C   0  0  0  0  0  0  0  0  0  0  0  0
    5.9147   -2.2571   -1.0203 C   0  0  0  0  0  0  0  0  0  0  0  0
    7.4342   -1.5343   -3.6945 C   0  0  0  0  0  0  0  0  0  0  0  0
    1.5518   -0.1278   -0.1193 C   0  0  0  0  0  0  0  0  0  0  0  0
    9.5451   -1.7164   -3.4158 C   0  0  0  0  0  0  0  0  0  0  0  0
    7.8027   -1.1169   -2.2629 C   0  0  0  0  0  0  0  0  0  0  0  0
    8.6625   -2.1312   -4.2513 N   0  0  0  0  0  0  0  0  0  0  0  0
    5.2840   -0.9553   -0.7369 N   0  0  0  0  0  0  0  0  0  0  0  0
   10.8460   -1.9648   -3.5487 O   0  0  0  0  0  0  0  0  0  0  0  0
    9.2240   -1.0010   -2.3194 O   0  0  0  0  0  0  0  0  0  0  0  0
  2  1  2  0  0  0  0
  3  1  1  0  0  0  0
  4  2  1  0  0  0  0
  5  3  2  0  0  0  0
  9  6  1  0  0  0  0
 10  7  1  0  0  0  0
 11  8  1  0  0  0  0
 13  4  2  0  0  0  0
 13  5  1  0  0  0  0
 13  6  1  0  0  0  0
 15  7  1  0  0  0  0
 15  8  1  0  0  0  0
 15 12  1  0  0  0  0
 16 12  1  0  0  0  0
 16 14  2  0  0  0  0
 17  9  1  0  0  0  0
 17 10  1  0  0  0  0
 17 11  1  0  0  0  0
 18 14  1  0  0  0  0
 19 14  1  0  0  0  0
 19 15  1  0  0  0  0
M  END
