
 OpenBabel10141417523D

 72 75  0  0  1  0  0  0  0  0999 V2000
    1.8625    6.7105  -29.0011 C   0  0  2  0  0  0  0  0  0  0  0  0
    0.7855    6.9356  -29.9175 O   0  0  0  0  0  0  0  0  0  0  0  0
    1.8918    5.3458  -31.5102 C   0  0  2  0  0  0  0  0  0  0  0  0
    2.5797    4.6275  -30.3235 C   0  0  1  0  0  0  0  0  0  0  0  0
    2.3505    5.2644  -28.9427 C   0  0  2  0  0  0  0  0  0  0  0  0
    1.4196    4.4560  -28.1793 O   0  0  0  0  0  0  0  0  0  0  0  0
    2.1459    3.2531  -30.2505 O   0  0  0  0  0  0  0  0  0  0  0  0
    2.8302    6.2875  -32.1434 O   0  0  0  0  0  0  0  0  0  0  0  0
    2.7039    6.4349  -33.5105 C   0  0  0  0  0  0  0  0  0  0  0  0
    1.8916    5.8175  -34.1843 O   0  0  0  0  0  0  0  0  0  0  0  0
    3.7081    7.4225  -34.1134 C   0  0  0  0  0  0  0  0  0  0  0  0
    3.4618    7.6139  -35.6237 C   0  0  0  0  0  0  0  0  0  0  0  0
    3.6620    8.7977  -33.4542 C   0  0  0  0  0  0  0  0  0  0  0  0
    5.1891    9.3435  -25.3736 C   0  0  0  0  0  0  0  0  0  0  0  0
    4.6049   10.7365  -25.4955 C   0  0  0  0  0  0  0  0  0  0  0  0
    6.3735    9.2761  -24.7349 C   0  0  0  0  0  0  0  0  0  0  0  0
    6.2509    8.2835  -22.0050 O   0  0  0  0  0  0  0  0  0  0  0  0
    7.1709    8.1047  -24.2461 C   0  0  0  0  0  0  0  0  0  0  0  0
    7.5030    8.2239  -22.7403 C   0  0  3  0  0  0  0  0  0  0  0  0
    3.2810    8.2106  -26.5882 C   0  0  0  0  0  0  0  0  0  0  0  0
    3.0594    9.3548  -27.5564 C   0  0  0  0  0  0  0  0  0  0  0  0
    4.3399    8.1982  -25.7368 C   0  0  0  0  0  0  0  0  0  0  0  0
    1.1899    7.2246  -25.2662 C   0  0  1  0  0  0  0  0  0  0  0  0
    0.7296    8.6806  -25.1041 C   0  0  0  0  0  0  0  0  0  0  0  0
    2.1979    7.1069  -26.5435 C   0  0  1  0  0  0  0  0  0  0  0  0
    0.0117    9.4294  -24.2345 C   0  0  0  0  0  0  0  0  0  0  0  0
   -0.7730    9.0473  -22.9946 C   0  0  2  0  0  0  0  0  0  0  0  0
   -0.2237    9.4581  -21.5884 C   0  0  0  0  0  0  0  0  0  0  0  0
    1.2618    9.4351  -21.2668 C   0  0  0  0  0  0  0  0  0  0  0  0
    2.2279    9.9429  -22.0432 C   0  0  0  0  0  0  0  0  0  0  0  0
    3.6672    9.9238  -21.9500 C   0  0  0  0  0  0  0  0  0  0  0  0
    4.5219    9.4482  -21.0286 C   0  0  0  0  0  0  0  0  0  0  0  0
    5.9283    9.4874  -21.4538 C   0  0  0  0  0  0  0  0  0  0  0  0
    6.5908   10.5242  -21.5023 O   0  0  0  0  0  0  0  0  0  0  0  0
   -1.0990    7.6593  -23.0076 O   0  0  0  0  0  0  0  0  0  0  0  0
    4.1781    8.8151  -19.7180 C   0  0  0  0  0  0  0  0  0  0  0  0
    1.3507    7.1307  -27.7179 O   0  0  0  0  0  0  0  0  0  0  0  0
   -0.5123    5.0535  -30.6826 C   0  0  0  0  0  0  0  0  0  0  0  0
    0.5945    6.0640  -31.0436 C   0  0  0  0  0  0  0  0  0  0  0  0
    0.0094    6.9646  -32.1485 C   0  0  0  0  0  0  0  0  0  0  0  0
    8.2988    7.0050  -22.2309 C   0  0  2  0  0  0  0  0  0  0  0  0
    8.5763    7.1782  -20.8383 O   0  0  0  0  0  0  0  0  0  0  0  0
    9.6449    6.8432  -22.9283 C   0  0  0  0  0  0  0  0  0  0  0  0
    1.7829    6.6182  -23.9683 C   0  0  0  0  0  0  0  0  0  0  0  0
    2.1335    5.1305  -24.0437 C   0  0  0  0  0  0  0  0  0  0  0  0
    5.3240    8.3398  -19.0154 O   0  0  0  0  0  0  0  0  0  0  0  0
    5.0115    7.8134  -17.7169 C   0  0  1  0  0  0  0  0  0  0  0  0
    4.0892    6.5734  -17.7992 C   0  0  2  0  0  0  0  0  0  0  0  0
    3.7010    6.2650  -16.3518 C   0  0  2  0  0  0  0  0  0  0  0  0
    4.9558    5.8286  -15.5866 C   0  0  1  0  0  0  0  0  0  0  0  0
    6.0167    6.9687  -15.6807 C   0  0  2  0  0  0  0  0  0  0  0  0
    6.2188    7.4476  -17.0311 O   0  0  0  0  0  0  0  0  0  0  0  0
    7.3868    6.4942  -15.2026 C   0  0  0  0  0  0  0  0  0  0  0  0
    4.8068    5.5201  -18.4776 O   0  0  0  0  0  0  0  0  0  0  0  0
    4.1313    4.2823  -18.6121 C   0  0  0  0  0  0  0  0  0  0  0  0
    2.6539    5.2918  -16.3012 O   0  0  0  0  0  0  0  0  0  0  0  0
    4.5810    5.3035  -14.2935 O   0  0  0  0  0  0  0  0  0  0  0  0
    4.3083    6.0938  -13.2428 C   0  0  0  0  0  0  0  0  0  0  0  0
    3.6764    5.2987  -12.1339 C   0  0  0  0  0  0  0  0  0  0  0  0
    4.4797    7.2945  -13.2169 O   0  0  0  0  0  0  0  0  0  0  0  0
    4.0304    3.9572  -11.7864 C   0  0  0  0  0  0  0  0  0  0  0  0
    3.2287    3.2753  -10.8482 C   0  0  0  0  0  0  0  0  0  0  0  0
    2.1334    3.8926  -10.2305 C   0  0  0  0  0  0  0  0  0  0  0  0
    1.8480    5.2258  -10.5023 C   0  0  0  0  0  0  0  0  0  0  0  0
    2.6184    5.9267  -11.4346 C   0  0  0  0  0  0  0  0  0  0  0  0
    3.5451    1.6221  -10.4026 Cl  0  0  0  0  0  0  0  0  0  0  0  0
    1.3360    3.2098   -9.3453 O   0  0  0  0  0  0  0  0  0  0  0  0
    0.5188    6.0246   -9.7297 Cl  0  0  0  0  0  0  0  0  0  0  0  0
    2.3221    7.2483  -11.6648 O   0  0  0  0  0  0  0  0  0  0  0  0
    5.2782    3.2956  -12.3386 C   0  0  0  0  0  0  0  0  0  0  0  0
    5.0775    2.4499  -13.5856 C   0  0  0  0  0  0  0  0  0  0  0  0
   -0.0771   10.9180  -24.5552 C   0  0  0  0  0  0  0  0  0  0  0  0
  1  2  1  0  0  0  0
  1  5  1  0  0  0  0
  1 37  1  1  0  0  0
  2 39  1  0  0  0  0
  3  4  1  0  0  0  0
  3  8  1  1  0  0  0
  4  5  1  0  0  0  0
  4  7  1  1  0  0  0
  5  6  1  6  0  0  0
  8  9  1  0  0  0  0
  9 10  2  0  0  0  0
  9 11  1  0  0  0  0
 11 12  1  0  0  0  0
 11 13  1  0  0  0  0
 14 22  1  0  0  0  0
 15 14  1  0  0  0  0
 16 14  2  0  0  0  0
 18 16  1  0  0  0  0
 19 17  1  0  0  0  0
 19 18  1  0  0  0  0
 20 25  1  0  0  0  0
 21 20  1  0  0  0  0
 22 20  2  0  0  0  0
 23 44  1  1  0  0  0
 24 23  1  0  0  0  0
 24 26  2  0  0  0  0
 25 23  1  0  0  0  0
 25 37  1  6  0  0  0
 26 72  1  0  0  0  0
 27 26  1  0  0  0  0
 27 35  1  1  0  0  0
 28 27  1  0  0  0  0
 29 28  1  0  0  0  0
 30 29  2  0  0  0  0
 31 30  1  0  0  0  0
 32 31  2  0  0  0  0
 32 36  1  0  0  0  0
 33 17  1  0  0  0  0
 33 32  1  0  0  0  0
 33 34  2  0  0  0  0
 36 46  1  0  0  0  0
 38 39  1  0  0  0  0
 39  3  1  0  0  0  0
 39 40  1  0  0  0  0
 41 43  1  6  0  0  0
 41 42  1  0  0  0  0
 41 19  1  0  0  0  0
 44 45  1  0  0  0  0
 47 48  1  0  0  0  0
 47 52  1  0  0  0  0
 47 46  1  6  0  0  0
 48 49  1  0  0  0  0
 48 54  1  1  0  0  0
 49 50  1  0  0  0  0
 49 56  1  6  0  0  0
 50 51  1  0  0  0  0
 50 57  1  1  0  0  0
 51 52  1  0  0  0  0
 51 53  1  6  0  0  0
 54 55  1  0  0  0  0
 57 58  1  0  0  0  0
 58 59  1  0  0  0  0
 58 60  2  0  0  0  0
 59 61  2  0  0  0  0
 59 65  1  0  0  0  0
 61 62  1  0  0  0  0
 61 70  1  0  0  0  0
 62 63  2  0  0  0  0
 62 66  1  0  0  0  0
 63 64  1  0  0  0  0
 63 67  1  0  0  0  0
 64 65  2  0  0  0  0
 64 68  1  0  0  0  0
 65 69  1  0  0  0  0
 70 71  1  0  0  0  0
M  END
