1148
 OpenBabel10141417493D

 29 32  0  0  0  0  0  0  0  0999 V2000
    2.1674   -1.5666   -0.7991 O   0  0  0  0  0  0  0  0  0  0  0  0
    2.4207   -4.1061   -0.3466 O   0  0  0  0  0  0  0  0  0  0  0  0
    1.9758   -0.4566    1.1934 O   0  0  0  0  0  0  0  0  0  0  0  0
    4.7956   -6.9100    1.3526 O   0  0  0  0  0  0  0  0  0  0  0  0
   -1.2541   -0.2450   -1.7516 N   0  0  0  0  0  0  0  0  0  0  0  0
   -2.6168   -0.7067   -1.4295 C   0  0  0  0  0  0  0  0  0  0  0  0
   -1.1288   -0.0814   -3.2057 C   0  0  0  0  0  0  0  0  0  0  0  0
   -3.0162   -2.0056   -2.1393 C   0  0  0  0  0  0  0  0  0  0  0  0
   -1.4062   -1.3663   -3.9863 C   0  0  0  0  0  0  0  0  0  0  0  0
   -2.7831   -1.9303   -3.6471 C   0  0  0  0  0  0  0  0  0  0  0  0
   -0.2168   -1.1151   -1.1584 C   0  0  0  0  0  0  0  0  0  0  0  0
    1.2354   -0.6568   -1.4084 C   0  0  0  0  0  0  0  0  0  0  0  0
    3.3175   -2.4010    1.0627 C   0  0  0  0  0  0  0  0  0  0  0  0
    2.4093   -1.3733    0.5112 C   0  0  0  0  0  0  0  0  0  0  0  0
    3.3071   -3.7332    0.6276 C   0  0  0  0  0  0  0  0  0  0  0  0
    4.1453   -4.6578    1.2450 C   0  0  0  0  0  0  0  0  0  0  0  0
    3.1938   -6.3952   -0.3233 C   0  0  0  0  0  0  0  0  0  0  0  0
    2.4013   -5.4130   -0.7900 C   0  0  0  0  0  0  0  0  0  0  0  0
    4.1110   -6.0587    0.7971 C   0  0  0  0  0  0  0  0  0  0  0  0
    4.1520   -2.0209    2.1285 C   0  0  0  0  0  0  0  0  0  0  0  0
    4.9779   -4.2777    2.3064 C   0  0  0  0  0  0  0  0  0  0  0  0
    1.3252   -5.6370   -1.7692 C   0  0  0  0  0  0  0  0  0  0  0  0
    4.9774   -2.9574    2.7506 C   0  0  0  0  0  0  0  0  0  0  0  0
    3.2313   -7.8144   -0.7976 C   0  0  0  0  0  0  0  0  0  0  0  0
    1.5502   -5.5561   -3.1478 C   0  0  0  0  0  0  0  0  0  0  0  0
    0.0248   -5.8794   -1.3022 C   0  0  0  0  0  0  0  0  0  0  0  0
    0.4867   -5.7125   -4.0434 C   0  0  0  0  0  0  0  0  0  0  0  0
   -1.0341   -6.0386   -2.1979 C   0  0  0  0  0  0  0  0  0  0  0  0
   -0.8035   -5.9503   -3.5686 C   0  0  0  0  0  0  0  0  0  0  0  0
  1 12  1  0  0  0  0
  1 14  1  0  0  0  0
  2 15  1  0  0  0  0
  2 18  1  0  0  0  0
  3 14  2  0  0  0  0
  4 19  2  0  0  0  0
  5  6  1  0  0  0  0
  5  7  1  0  0  0  0
  5 11  1  0  0  0  0
  6  8  1  0  0  0  0
  7  9  1  0  0  0  0
  8 10  1  0  0  0  0
  9 10  1  0  0  0  0
 11 12  1  0  0  0  0
 13 14  1  0  0  0  0
 13 15  1  0  0  0  0
 13 20  2  0  0  0  0
 15 16  2  0  0  0  0
 16 19  1  0  0  0  0
 16 21  1  0  0  0  0
 17 18  2  0  0  0  0
 17 19  1  0  0  0  0
 17 24  1  0  0  0  0
 18 22  1  0  0  0  0
 20 23  1  0  0  0  0
 21 23  2  0  0  0  0
 22 25  2  0  0  0  0
 22 26  1  0  0  0  0
 25 27  1  0  0  0  0
 26 28  2  0  0  0  0
 27 29  2  0  0  0  0
 28 29  1  0  0  0  0
M  END
