1195
 OpenBabel10141417483D

 28 29  0  0  1  0  0  0  0  0999 V2000
    3.7614   -0.2349    2.5642 F   0  0  0  0  0  0  0  0  0  0  0  0
    5.1682   -1.4945    3.6544 F   0  0  0  0  0  0  0  0  0  0  0  0
    4.2484   -2.2238    1.8187 F   0  0  0  0  0  0  0  0  0  0  0  0
    6.8122    7.4446    5.4296 F   0  0  0  0  0  0  0  0  0  0  0  0
    7.9546    6.7355    7.1468 F   0  0  0  0  0  0  0  0  0  0  0  0
    8.9170    6.9219    5.2021 F   0  0  0  0  0  0  0  0  0  0  0  0
    3.3768    3.9384    0.7093 O   0  0  0  0  0  0  0  0  0  0  0  0
    5.8085    0.7790    1.1653 O   0  0  0  0  0  0  0  0  0  0  0  0
    6.1926    5.0052    4.7421 O   0  0  0  0  0  0  0  0  0  0  0  0
    6.2519    3.9203   -2.8854 N   0  0  0  0  0  0  0  0  0  0  0  0
    4.8511    2.7045   -0.5520 N   0  0  0  0  0  0  0  0  0  0  0  0
    4.7985    4.1140   -2.6749 C   0  0  3  0  0  0  0  0  0  0  0  0
    4.4314    5.4884   -2.0811 C   0  0  0  0  0  0  0  0  0  0  0  0
    5.4275    5.9329   -1.0208 C   0  0  0  0  0  0  0  0  0  0  0  0
    6.8615    5.8926   -1.5387 C   0  0  0  0  0  0  0  0  0  0  0  0
    6.9980    5.1739   -2.8803 C   0  0  0  0  0  0  0  0  0  0  0  0
    4.2253    2.9267   -1.8517 C   0  0  0  0  0  0  0  0  0  0  0  0
    4.3841    3.2213    0.6348 C   0  0  0  0  0  0  0  0  0  0  0  0
    5.2144    2.9805    1.8584 C   0  0  0  0  0  0  0  0  0  0  0  0
    5.9057    1.7745    2.0973 C   0  0  0  0  0  0  0  0  0  0  0  0
    5.2980    4.0238    2.8017 C   0  0  0  0  0  0  0  0  0  0  0  0
    6.1006    3.9009    3.9381 C   0  0  0  0  0  0  0  0  0  0  0  0
    6.6813    1.6549    3.2582 C   0  0  0  0  0  0  0  0  0  0  0  0
    6.7617    2.7007    4.1802 C   0  0  0  0  0  0  0  0  0  0  0  0
    5.9446   -0.5789    1.6104 C   0  0  0  0  0  0  0  0  0  0  0  0
    7.4094    5.1177    5.5015 C   0  0  0  0  0  0  0  0  0  0  0  0
    4.7645   -1.1228    2.4152 C   0  0  0  0  0  0  0  0  0  0  0  0
    7.7614    6.5685    5.8165 C   0  0  0  0  0  0  0  0  0  0  0  0
  1 27  1  0  0  0  0
  2 27  1  0  0  0  0
  3 27  1  0  0  0  0
  4 28  1  0  0  0  0
  5 28  1  0  0  0  0
  6 28  1  0  0  0  0
  7 18  2  0  0  0  0
  8 20  1  0  0  0  0
  8 25  1  0  0  0  0
  9 22  1  0  0  0  0
  9 26  1  0  0  0  0
 10 12  1  0  0  0  0
 10 16  1  0  0  0  0
 11 17  1  0  0  0  0
 11 18  1  0  0  0  0
 12 13  1  0  0  0  0
 12 17  1  0  0  0  0
 13 14  1  0  0  0  0
 14 15  1  0  0  0  0
 15 16  1  0  0  0  0
 18 19  1  0  0  0  0
 19 20  2  0  0  0  0
 19 21  1  0  0  0  0
 20 23  1  0  0  0  0
 21 22  2  0  0  0  0
 22 24  1  0  0  0  0
 23 24  2  0  0  0  0
 25 27  1  0  0  0  0
 26 28  1  0  0  0  0
M  END
