196
 OpenBabel10141417483D

 22 24  0  0  0  0  0  0  0  0999 V2000
    5.5915    2.3807   -0.2403 F   0  0  0  0  0  0  0  0  0  0  0  0
    5.8905   -1.6064   -2.6572 F   0  0  0  0  0  0  0  0  0  0  0  0
    1.4014    2.2535   -0.5319 O   0  0  0  0  0  0  0  0  0  0  0  0
    3.3099    1.5535    2.5960 N   0  0  0  0  0  0  0  0  0  0  0  0
    3.4989    4.2989   -1.0441 N   0  0  0  0  0  0  0  0  0  0  0  0
    4.6037    1.8193    2.3825 N   0  0  0  0  0  0  0  0  0  0  0  0
    2.7017    4.1141   -2.1208 N   0  0  0  0  0  0  0  0  0  0  0  0
    4.2082    1.4404    4.5932 N   0  0  0  0  0  0  0  0  0  0  0  0
    4.3354    5.6496   -2.5474 N   0  0  0  0  0  0  0  0  0  0  0  0
    2.6972    2.1846    0.1353 C   0  0  0  0  0  0  0  0  0  0  0  0
    2.3141    1.6378    1.5534 C   0  0  0  0  0  0  0  0  0  0  0  0
    3.2490    3.6390    0.2273 C   0  0  0  0  0  0  0  0  0  0  0  0
    3.5598    1.1955   -0.6602 C   0  0  0  0  0  0  0  0  0  0  0  0
    4.9581    1.3180   -0.7514 C   0  0  0  0  0  0  0  0  0  0  0  0
    2.9706    0.1072   -1.3382 C   0  0  0  0  0  0  0  0  0  0  0  0
    5.7474    0.3742   -1.3994 C   0  0  0  0  0  0  0  0  0  0  0  0
    3.7557   -0.8222   -2.0306 C   0  0  0  0  0  0  0  0  0  0  0  0
    3.0757    1.3123    3.9205 C   0  0  0  0  0  0  0  0  0  0  0  0
    4.4628    5.2250   -1.3139 C   0  0  0  0  0  0  0  0  0  0  0  0
    5.1383   -0.6941   -2.0284 C   0  0  0  0  0  0  0  0  0  0  0  0
    5.1056    1.7486    3.6217 C   0  0  0  0  0  0  0  0  0  0  0  0
    3.2569    4.9491   -3.0031 C   0  0  0  0  0  0  0  0  0  0  0  0
  1 14  1  0  0  0  0
  2 20  1  0  0  0  0
  3 10  1  0  0  0  0
  4  6  1  0  0  0  0
  4 11  1  0  0  0  0
  4 18  1  0  0  0  0
  5  7  1  0  0  0  0
  5 12  1  0  0  0  0
  5 19  1  0  0  0  0
  6 21  2  0  0  0  0
  7 22  2  0  0  0  0
  8 18  2  0  0  0  0
  8 21  1  0  0  0  0
  9 19  2  0  0  0  0
  9 22  1  0  0  0  0
 10 11  1  0  0  0  0
 10 12  1  0  0  0  0
 10 13  1  0  0  0  0
 13 14  2  0  0  0  0
 13 15  1  0  0  0  0
 14 16  1  0  0  0  0
 15 17  2  0  0  0  0
 16 20  2  0  0  0  0
 17 20  1  0  0  0  0
M  END
