1099
 OpenBabel10141417493D

  9  9  0  0  0  0  0  0  0  0999 V2000
    0.9077    0.0118    0.2014 F   0  0  0  0  0  0  0  0  0  0  0  0
    6.2128    0.0559   -0.3141 O   0  0  0  0  0  0  0  0  0  0  0  0
    4.2797    1.1730   -0.0905 N   0  0  0  0  0  0  0  0  0  0  0  0
    2.3328    2.4996    0.1040 N   0  0  0  0  0  0  0  0  0  0  0  0
    4.3103   -1.1904   -0.0955 N   0  0  0  0  0  0  0  0  0  0  0  0
    2.9243    1.2607    0.0412 C   0  0  0  0  0  0  0  0  0  0  0  0
    2.2439    0.1082    0.0954 C   0  0  0  0  0  0  0  0  0  0  0  0
    4.9966   -0.0016   -0.1732 C   0  0  0  0  0  0  0  0  0  0  0  0
    3.0267   -1.1293    0.0347 C   0  0  0  0  0  0  0  0  0  0  0  0
  1  7  1  0  0  0  0
  2  8  2  0  0  0  0
  3  6  1  0  0  0  0
  3  8  1  0  0  0  0
  4  6  1  0  0  0  0
  5  8  1  0  0  0  0
  5  9  2  0  0  0  0
  6  7  2  0  0  0  0
  7  9  1  0  0  0  0
M  END
