82153
 OpenBabel10141417493D

 31 35  0  0  1  0  0  0  0  0999 V2000
    5.6130   -7.3957    0.4408 F   0  0  0  0  0  0  0  0  0  0  0  0
    0.8516  -11.2485    2.4160 O   0  0  0  0  0  0  0  0  0  0  0  0
   -1.1373  -10.4263    1.4010 O   0  0  0  0  0  0  0  0  0  0  0  0
    2.9585   -6.6241    3.7967 O   0  0  0  0  0  0  0  0  0  0  0  0
    0.7962  -11.0021   -1.1065 O   0  0  0  0  0  0  0  0  0  0  0  0
    3.2288  -12.7309   -0.2670 O   0  0  0  0  0  0  0  0  0  0  0  0
    6.6584   -3.0807    2.8297 O   0  0  0  0  0  0  0  0  0  0  0  0
    2.2850   -9.3751    1.2878 C   0  0  1  0  0  0  0  0  0  0  0  0
    1.7644   -8.4457    0.1348 C   0  0  2  0  0  0  0  0  0  0  0  0
    2.3833   -7.0404    0.0559 C   0  0  1  0  0  0  0  0  0  0  0  0
    1.1460  -10.4400    1.2826 C   0  0  1  0  0  0  0  0  0  0  0  0
    2.5204   -6.3108    1.4126 C   0  0  2  0  0  0  0  0  0  0  0  0
   -0.0607   -9.5208    1.3055 C   0  0  1  0  0  0  0  0  0  0  0  0
    0.1926   -8.4755    0.2383 C   0  0  0  0  0  0  0  0  0  0  0  0
    2.4096   -8.5962    2.6235 C   0  0  0  0  0  0  0  0  0  0  0  0
    3.1155   -7.2362    2.5137 C   0  0  2  0  0  0  0  0  0  0  0  0
    3.3001   -4.9537    1.2041 C   0  0  1  0  0  0  0  0  0  0  0  0
    3.6779   -7.0301   -0.8054 C   0  0  0  0  0  0  0  0  0  0  0  0
    3.6588   -9.9860    0.9844 C   0  0  0  0  0  0  0  0  0  0  0  0
    4.9311   -6.3990   -0.1986 C   0  0  1  0  0  0  0  0  0  0  0  0
   -0.6110  -11.3598    2.3926 C   0  0  0  0  0  0  0  0  0  0  0  0
    1.1984  -11.3601    0.0063 C   0  0  0  0  0  0  0  0  0  0  0  0
    4.7252   -5.2714    0.7771 C   0  0  0  0  0  0  0  0  0  0  0  0
    2.6431   -4.0720    0.1083 C   0  0  0  0  0  0  0  0  0  0  0  0
    3.2670   -4.0755    2.4462 C   0  0  0  0  0  0  0  0  0  0  0  0
    1.8711  -12.7281    0.1278 C   0  0  0  0  0  0  0  0  0  0  0  0
   -1.0432  -12.7745    2.0180 C   0  0  0  0  0  0  0  0  0  0  0  0
   -1.1189  -11.0155    3.7931 C   0  0  0  0  0  0  0  0  0  0  0  0
    5.8038   -4.6764    1.3199 C   0  0  0  0  0  0  0  0  0  0  0  0
    4.3385   -3.4724    2.9787 C   0  0  0  0  0  0  0  0  0  0  0  0
    5.6837   -3.6755    2.4013 C   0  0  0  0  0  0  0  0  0  0  0  0
  2 11  1  0  0  0  0
  2 21  1  0  0  0  0
  3 21  1  0  0  0  0
  5 22  2  0  0  0  0
  6 26  1  0  0  0  0
  7 31  2  0  0  0  0
  8  9  1  0  0  0  0
  8 11  1  0  0  0  0
  8 15  1  0  0  0  0
  8 19  1  1  0  0  0
  9 10  1  0  0  0  0
  9 14  1  1  0  0  0
 10 18  1  1  0  0  0
 11 13  1  0  0  0  0
 11 22  1  1  0  0  0
 12 10  1  1  0  0  0
 12 16  1  0  0  0  0
 12 17  1  0  0  0  0
 13  3  1  6  0  0  0
 13 14  1  0  0  0  0
 15 16  1  0  0  0  0
 16  4  1  1  0  0  0
 17 23  1  0  0  0  0
 17 25  1  0  0  0  0
 17 24  1  6  0  0  0
 18 20  1  0  0  0  0
 20 23  1  0  0  0  0
 20  1  1  1  0  0  0
 21 27  1  0  0  0  0
 21 28  1  0  0  0  0
 22 26  1  0  0  0  0
 23 29  2  0  0  0  0
 25 30  2  0  0  0  0
 29 31  1  0  0  0  0
 30 31  1  0  0  0  0
M  END
