1544
 OpenBabel10141418073D

 23 25  0  0  0  0  0  0  0  0999 V2000
    4.9704    2.7480   -0.3514 F   0  0  0  0  0  0  0  0  0  0  0  0
   -0.0741    4.6015    2.3067 O   0  0  0  0  0  0  0  0  0  0  0  0
    4.1577    3.4558   -4.8171 O   0  5  0  0  0  0  0  0  0  0  0  0
    4.4470    5.6297   -4.8830 O   0  0  0  0  0  0  0  0  0  0  0  0
    1.6047    5.1280    0.8107 N   0  0  0  0  0  0  0  0  0  0  0  0
    0.9699    2.1970    0.2532 N   0  0  0  0  0  0  0  0  0  0  0  0
    4.0601    4.5905   -4.3302 N   0  3  0  0  0  0  0  0  0  0  0  0
    2.4240    3.6797   -1.0568 C   0  0  0  0  0  0  0  0  0  0  0  0
    2.2513    4.9431   -0.4520 C   0  0  0  0  0  0  0  0  0  0  0  0
    2.0919    2.4061   -0.3500 C   0  0  0  0  0  0  0  0  0  0  0  0
    2.9837    3.5698   -2.3445 C   0  0  0  0  0  0  0  0  0  0  0  0
    0.0005    3.2863    0.3053 C   0  0  0  0  0  0  0  0  0  0  0  0
    2.7376    6.0732   -1.1400 C   0  0  0  0  0  0  0  0  0  0  0  0
    0.5120    4.3682    1.2454 C   0  0  0  0  0  0  0  0  0  0  0  0
    3.0860    1.2834   -0.3439 C   0  0  0  0  0  0  0  0  0  0  0  0
    3.4412    4.7128   -3.0054 C   0  0  0  0  0  0  0  0  0  0  0  0
    3.3285    5.9661   -2.4038 C   0  0  0  0  0  0  0  0  0  0  0  0
    1.9745    6.2692    1.6381 C   0  0  0  0  0  0  0  0  0  0  0  0
    4.4661    1.5050   -0.3578 C   0  0  0  0  0  0  0  0  0  0  0  0
    2.6140   -0.0365   -0.2959 C   0  0  0  0  0  0  0  0  0  0  0  0
    5.3624    0.4374   -0.3685 C   0  0  0  0  0  0  0  0  0  0  0  0
    3.5105   -1.1086   -0.2984 C   0  0  0  0  0  0  0  0  0  0  0  0
    4.8841   -0.8719   -0.3429 C   0  0  0  0  0  0  0  0  0  0  0  0
  1 19  1  0  0  0  0
  2 14  2  0  0  0  0
  3  7  1  0  0  0  0
  4  7  2  0  0  0  0
  5  9  1  0  0  0  0
  5 14  1  0  0  0  0
  5 18  1  0  0  0  0
  6 10  2  0  0  0  0
  6 12  1  0  0  0  0
  7 16  1  0  0  0  0
  8  9  2  0  0  0  0
  8 10  1  0  0  0  0
  8 11  1  0  0  0  0
  9 13  1  0  0  0  0
 10 15  1  0  0  0  0
 11 16  2  0  0  0  0
 12 14  1  0  0  0  0
 13 17  2  0  0  0  0
 15 19  1  0  0  0  0
 15 20  2  0  0  0  0
 16 17  1  0  0  0  0
 19 21  2  0  0  0  0
 20 22  1  0  0  0  0
 21 23  1  0  0  0  0
 22 23  2  0  0  0  0
M  CHG  2   3  -1   7   1
M  END
