693
 OpenBabel10141417523D

 25 29  0  0  0  0  0  0  0  0999 V2000
    0.5940   -0.1802    1.9214 O   0  0  0  0  0  0  0  0  0  0  0  0
   -2.4943    0.5222   -0.5294 O   0  0  0  0  0  0  0  0  0  0  0  0
    2.5512   -0.6482    3.0430 O   0  0  0  0  0  0  0  0  0  0  0  0
   -3.6826   -4.0897   -0.5506 O   0  0  0  0  0  0  0  0  0  0  0  0
   -1.6615    5.2117   -0.5008 O   0  0  0  0  0  0  0  0  0  0  0  0
    0.1584   -0.0594    0.5407 C   0  0  0  0  0  0  0  0  0  0  0  0
    1.4199   -0.3046   -0.2266 C   0  0  0  0  0  0  0  0  0  0  0  0
   -0.8833   -1.1258    0.2840 C   0  0  0  0  0  0  0  0  0  0  0  0
   -0.3600    1.3469    0.3277 C   0  0  0  0  0  0  0  0  0  0  0  0
    2.4500   -0.5303    0.6630 C   0  0  0  0  0  0  0  0  0  0  0  0
   -2.1286   -0.7725   -0.2423 C   0  0  0  0  0  0  0  0  0  0  0  0
   -1.6301    1.5463   -0.2193 C   0  0  0  0  0  0  0  0  0  0  0  0
    1.9241   -0.4708    2.0212 C   0  0  0  0  0  0  0  0  0  0  0  0
    1.6544   -0.3101   -1.5945 C   0  0  0  0  0  0  0  0  0  0  0  0
   -0.6135   -2.4882    0.5295 C   0  0  0  0  0  0  0  0  0  0  0  0
    0.4394    2.4738    0.6126 C   0  0  0  0  0  0  0  0  0  0  0  0
    3.7500   -0.7591    0.2523 C   0  0  0  0  0  0  0  0  0  0  0  0
   -3.0849   -1.7567   -0.5240 C   0  0  0  0  0  0  0  0  0  0  0  0
   -2.0868    2.8409   -0.4989 C   0  0  0  0  0  0  0  0  0  0  0  0
    2.9585   -0.5401   -2.0386 C   0  0  0  0  0  0  0  0  0  0  0  0
   -1.5603   -3.4679    0.2404 C   0  0  0  0  0  0  0  0  0  0  0  0
   -0.0113    3.7605    0.3279 C   0  0  0  0  0  0  0  0  0  0  0  0
    4.0007   -0.7597   -1.1210 C   0  0  0  0  0  0  0  0  0  0  0  0
   -2.7890   -3.0957   -0.2831 C   0  0  0  0  0  0  0  0  0  0  0  0
   -1.2689    3.9349   -0.2290 C   0  0  0  0  0  0  0  0  0  0  0  0
  1  6  1  0  0  0  0
  1 13  1  0  0  0  0
  2 11  1  0  0  0  0
  2 12  1  0  0  0  0
  3 13  2  0  0  0  0
  4 24  1  0  0  0  0
  5 25  1  0  0  0  0
  6  7  1  0  0  0  0
  6  8  1  0  0  0  0
  6  9  1  0  0  0  0
  7 10  1  0  0  0  0
  7 14  2  0  0  0  0
  8 11  2  0  0  0  0
  8 15  1  0  0  0  0
  9 12  2  0  0  0  0
  9 16  1  0  0  0  0
 10 13  1  0  0  0  0
 10 17  2  0  0  0  0
 11 18  1  0  0  0  0
 12 19  1  0  0  0  0
 14 20  1  0  0  0  0
 15 21  2  0  0  0  0
 16 22  2  0  0  0  0
 17 23  1  0  0  0  0
 18 24  2  0  0  0  0
 19 25  2  0  0  0  0
 20 23  2  0  0  0  0
 21 24  1  0  0  0  0
 22 25  1  0  0  0  0
M  END
