591
 OpenBabel10141417503D

 32 36  0  0  1  0  0  0  0  0999 V2000
   16.0434   -0.1437   -2.5118 F   0  0  0  0  0  0  0  0  0  0  0  0
   20.3208    0.0938   -2.1465 F   0  0  0  0  0  0  0  0  0  0  0  0
   13.7174   -5.1793   -2.8701 O   0  0  0  0  0  0  0  0  0  0  0  0
   15.2230   -5.5489   -4.6725 O   0  0  0  0  0  0  0  0  0  0  0  0
   13.9193   -0.2409   -0.9748 O   0  0  0  0  0  0  0  0  0  0  0  0
   16.9331   -6.4737   -2.0495 O   0  0  0  0  0  0  0  0  0  0  0  0
   14.8075   -6.9206    0.2318 O   0  0  0  0  0  0  0  0  0  0  0  0
   19.6996    1.4324    2.5709 O   0  0  0  0  0  0  0  0  0  0  0  0
   15.4154   -3.6431   -1.6185 C   0  0  1  0  0  0  0  0  0  0  0  0
   16.5170   -2.9215   -2.4884 C   0  0  2  0  0  0  0  0  0  0  0  0
   17.3202   -1.9173   -1.6762 C   0  0  1  0  0  0  0  0  0  0  0  0
   15.0644   -4.9101   -2.4811 C   0  0  1  0  0  0  0  0  0  0  0  0
   16.3131   -0.7696   -1.2975 C   0  0  1  0  0  0  0  0  0  0  0  0
   15.6477   -4.5122   -3.8280 C   0  0  1  0  0  0  0  0  0  0  0  0
   17.0310   -3.9497   -3.5140 C   0  0  0  0  0  0  0  0  0  0  0  0
   14.3285   -2.5634   -1.4631 C   0  0  0  0  0  0  0  0  0  0  0  0
   14.8956   -1.2725   -0.7952 C   0  0  2  0  0  0  0  0  0  0  0  0
   17.0046    0.3175   -0.3718 C   0  0  1  0  0  0  0  0  0  0  0  0
   18.5249   -1.3696   -2.4594 C   0  0  0  0  0  0  0  0  0  0  0  0
   15.8956   -4.0462   -0.2036 C   0  0  0  0  0  0  0  0  0  0  0  0
   18.9638    0.0304   -2.0265 C   0  0  1  0  0  0  0  0  0  0  0  0
   15.7241   -6.2356   -1.9491 C   0  0  0  0  0  0  0  0  0  0  0  0
   13.8226   -5.6434   -4.2573 C   0  0  0  0  0  0  0  0  0  0  0  0
   18.5218    0.3633   -0.6290 C   0  0  0  0  0  0  0  0  0  0  0  0
   16.4173    1.7156   -0.6852 C   0  0  0  0  0  0  0  0  0  0  0  0
   16.8193    0.0163    1.1301 C   0  0  0  0  0  0  0  0  0  0  0  0
   14.8636   -7.2134   -1.1506 C   0  0  0  0  0  0  0  0  0  0  0  0
   13.3551   -7.0856   -4.3976 C   0  0  0  0  0  0  0  0  0  0  0  0
   12.9207   -4.7297   -5.1000 C   0  0  0  0  0  0  0  0  0  0  0  0
   19.3992    0.6438    0.3567 C   0  0  0  0  0  0  0  0  0  0  0  0
   17.4815    0.7563    2.0432 C   0  0  0  0  0  0  0  0  0  0  0  0
   18.9331    0.9698    1.7287 C   0  0  0  0  0  0  0  0  0  0  0  0
  3 12  1  0  0  0  0
  3 23  1  0  0  0  0
  4 23  1  0  0  0  0
  6 22  2  0  0  0  0
  7 27  1  0  0  0  0
  8 32  2  0  0  0  0
  9 10  1  0  0  0  0
  9 12  1  0  0  0  0
  9 16  1  0  0  0  0
  9 20  1  6  0  0  0
 10 11  1  0  0  0  0
 10 15  1  6  0  0  0
 11 13  1  0  0  0  0
 11 19  1  1  0  0  0
 12 14  1  0  0  0  0
 12 22  1  6  0  0  0
 13 17  1  0  0  0  0
 13 18  1  0  0  0  0
 13  1  1  1  0  0  0
 14  4  1  6  0  0  0
 14 15  1  0  0  0  0
 16 17  1  0  0  0  0
 17  5  1  6  0  0  0
 18 24  1  0  0  0  0
 18 26  1  0  0  0  0
 18 25  1  6  0  0  0
 19 21  1  0  0  0  0
 21 24  1  0  0  0  0
 21  2  1  1  0  0  0
 22 27  1  0  0  0  0
 23 28  1  0  0  0  0
 23 29  1  0  0  0  0
 24 30  2  0  0  0  0
 26 31  2  0  0  0  0
 30 32  1  0  0  0  0
 31 32  1  0  0  0  0
M  END
