1047
 OpenBabel10141417493D

 35 39  0  0  1  0  0  0  0  0999 V2000
   15.5905    1.6680   -2.2146 F   0  0  0  0  0  0  0  0  0  0  0  0
   19.8287   -0.4113   -1.6323 F   0  0  0  0  0  0  0  0  0  0  0  0
   12.6545   -3.1189   -3.2127 O   0  0  0  0  0  0  0  0  0  0  0  0
   13.7402   -2.9037   -5.3190 O   0  0  0  0  0  0  0  0  0  0  0  0
   13.8771    1.4458   -0.2357 O   0  0  0  0  0  0  0  0  0  0  0  0
   15.9897   -4.5542   -3.0813 O   0  0  0  0  0  0  0  0  0  0  0  0
   14.6456   -6.9319   -2.5870 O   0  0  0  0  0  0  0  0  0  0  0  0
   19.9053    2.0071    2.7113 O   0  0  0  0  0  0  0  0  0  0  0  0
   14.6734   -7.2456   -4.8656 O   0  0  0  0  0  0  0  0  0  0  0  0
   14.6655   -1.8714   -1.9888 C   0  0  1  0  0  0  0  0  0  0  0  0
   15.6853   -1.0236   -2.8767 C   0  0  2  0  0  0  0  0  0  0  0  0
   16.7589   -0.3604   -2.0186 C   0  0  1  0  0  0  0  0  0  0  0  0
   14.0634   -2.9453   -3.0375 C   0  0  1  0  0  0  0  0  0  0  0  0
   16.0444    0.7901   -1.2255 C   0  0  1  0  0  0  0  0  0  0  0  0
   14.4082   -2.1968   -4.3184 C   0  0  1  0  0  0  0  0  0  0  0  0
   15.8727   -1.8001   -4.1890 C   0  0  0  0  0  0  0  0  0  0  0  0
   13.8060   -0.7323   -1.3560 C   0  0  0  0  0  0  0  0  0  0  0  0
   14.6957    0.3084   -0.5428 C   0  0  2  0  0  0  0  0  0  0  0  0
   17.0846    1.6458   -0.3402 C   0  0  1  0  0  0  0  0  0  0  0  0
   17.9277    0.2211   -2.8089 C   0  0  0  0  0  0  0  0  0  0  0  0
   15.3312   -2.6474   -0.8346 C   0  0  0  0  0  0  0  0  0  0  0  0
   19.0288    0.6768   -1.8526 C   0  0  1  0  0  0  0  0  0  0  0  0
   14.7636   -4.4166   -2.9856 C   0  0  0  0  0  0  0  0  0  0  0  0
   12.4477   -3.0856   -4.6699 C   0  0  0  0  0  0  0  0  0  0  0  0
   18.5570    1.1988   -0.5154 C   0  0  0  0  0  0  0  0  0  0  0  0
   17.0331    3.1304   -0.7964 C   0  0  0  0  0  0  0  0  0  0  0  0
   16.8022    1.5825    1.1806 C   0  0  0  0  0  0  0  0  0  0  0  0
   13.9022   -5.6828   -2.6973 C   0  0  0  0  0  0  0  0  0  0  0  0
   11.8322   -4.3577   -5.2312 C   0  0  0  0  0  0  0  0  0  0  0  0
   11.4733   -1.9246   -4.9302 C   0  0  0  0  0  0  0  0  0  0  0  0
   19.4322    1.2424    0.5154 C   0  0  0  0  0  0  0  0  0  0  0  0
   17.6320    2.2259    2.0305 C   0  0  0  0  0  0  0  0  0  0  0  0
   19.0662    1.8115    1.8449 C   0  0  0  0  0  0  0  0  0  0  0  0
   14.9857   -7.5983   -3.7193 C   0  0  0  0  0  0  0  0  0  0  0  0
   15.8078   -8.8295   -3.4312 C   0  0  0  0  0  0  0  0  0  0  0  0
  3 13  1  0  0  0  0
  3 24  1  0  0  0  0
  4 24  1  0  0  0  0
  6 23  2  0  0  0  0
  7 28  1  0  0  0  0
  7 34  1  0  0  0  0
  8 33  2  0  0  0  0
  9 34  2  0  0  0  0
 10 11  1  0  0  0  0
 10 13  1  0  0  0  0
 10 17  1  0  0  0  0
 10 21  1  6  0  0  0
 11 12  1  0  0  0  0
 11 16  1  1  0  0  0
 12 14  1  0  0  0  0
 12 20  1  1  0  0  0
 13 15  1  0  0  0  0
 13 23  1  6  0  0  0
 14 18  1  0  0  0  0
 14 19  1  0  0  0  0
 14  1  1  1  0  0  0
 15  4  1  6  0  0  0
 15 16  1  0  0  0  0
 17 18  1  0  0  0  0
 18  5  1  6  0  0  0
 19 25  1  0  0  0  0
 19 27  1  0  0  0  0
 19 26  1  6  0  0  0
 20 22  1  0  0  0  0
 22 25  1  0  0  0  0
 22  2  1  1  0  0  0
 23 28  1  0  0  0  0
 24 29  1  0  0  0  0
 24 30  1  0  0  0  0
 25 31  2  0  0  0  0
 27 32  2  0  0  0  0
 31 33  1  0  0  0  0
 32 33  1  0  0  0  0
 34 35  1  0  0  0  0
M  END
