472
 OpenBabel10141417503D

 22 23  0  0  1  0  0  0  0  0999 V2000
   -0.0411    0.3516    3.5283 F   0  0  0  0  0  0  0  0  0  0  0  0
   -0.9008   -0.8113    5.1510 F   0  0  0  0  0  0  0  0  0  0  0  0
   -1.3070   -1.3596    3.0867 F   0  0  0  0  0  0  0  0  0  0  0  0
    4.2727   -4.2701    4.0521 O   0  0  0  0  0  0  0  0  0  0  0  0
    6.0801   -7.5787    1.0144 N   0  0  0  0  0  0  0  0  0  0  0  0
    4.2374   -5.6893    3.8084 C   0  0  3  0  0  0  0  0  0  0  0  0
    5.1546   -5.9406    2.5941 C   0  0  0  0  0  0  0  0  0  0  0  0
    4.7133   -6.3893    5.0722 C   0  0  0  0  0  0  0  0  0  0  0  0
    5.2112   -7.4114    2.1827 C   0  0  0  0  0  0  0  0  0  0  0  0
    3.9012   -7.3238    5.7310 C   0  0  0  0  0  0  0  0  0  0  0  0
    5.9742   -6.0949    5.6221 C   0  0  0  0  0  0  0  0  0  0  0  0
    3.1117   -3.5580    4.0022 C   0  0  0  0  0  0  0  0  0  0  0  0
    4.3249   -7.9231    6.9204 C   0  0  0  0  0  0  0  0  0  0  0  0
    6.3942   -6.6928    6.8104 C   0  0  0  0  0  0  0  0  0  0  0  0
    3.2507   -2.2280    3.6021 C   0  0  0  0  0  0  0  0  0  0  0  0
    1.8566   -4.0269    4.3866 C   0  0  0  0  0  0  0  0  0  0  0  0
    0.8787   -1.8365    3.9296 C   0  0  0  0  0  0  0  0  0  0  0  0
    5.5679   -7.5990    7.4660 C   0  0  0  0  0  0  0  0  0  0  0  0
    6.1700   -8.9830    0.6341 C   0  0  0  0  0  0  0  0  0  0  0  0
    2.1474   -1.3715    3.5564 C   0  0  0  0  0  0  0  0  0  0  0  0
    0.7469   -3.1719    4.3386 C   0  0  0  0  0  0  0  0  0  0  0  0
   -0.3231   -0.9214    3.9214 C   0  0  0  0  0  0  0  0  0  0  0  0
  1 22  1  0  0  0  0
  2 22  1  0  0  0  0
  3 22  1  0  0  0  0
  4  6  1  0  0  0  0
  4 12  1  0  0  0  0
  5  9  1  0  0  0  0
  5 19  1  0  0  0  0
  6  7  1  0  0  0  0
  6  8  1  0  0  0  0
  7  9  1  0  0  0  0
  8 10  2  0  0  0  0
  8 11  1  0  0  0  0
 10 13  1  0  0  0  0
 11 14  2  0  0  0  0
 12 15  2  0  0  0  0
 12 16  1  0  0  0  0
 13 18  2  0  0  0  0
 14 18  1  0  0  0  0
 15 20  1  0  0  0  0
 16 21  2  0  0  0  0
 17 20  2  0  0  0  0
 17 21  1  0  0  0  0
 17 22  1  0  0  0  0
M  END
