623
 OpenBabel10141417503D

 30 33  0  0  0  0  0  0  0  0999 V2000
   -1.7027   -1.7632   -0.5150 S   0  0  0  0  0  0  0  0  0  0  0  0
    0.3213    2.7688   -5.1177 F   0  0  0  0  0  0  0  0  0  0  0  0
    0.0877    1.0131   -6.3788 F   0  0  0  0  0  0  0  0  0  0  0  0
   -1.6451    2.2205   -5.8604 F   0  0  0  0  0  0  0  0  0  0  0  0
   -1.2942    5.6412    6.2709 O   0  0  0  0  0  0  0  0  0  0  0  0
    1.1696    4.5793    1.5287 N   0  0  0  0  0  0  0  0  0  0  0  0
    0.5502    6.3793    3.8881 N   0  0  0  0  0  0  0  0  0  0  0  0
    0.3135    0.6731   -0.4957 N   0  0  0  0  0  0  0  0  0  0  0  0
    0.8841    4.0889    2.8899 C   0  0  0  0  0  0  0  0  0  0  0  0
    1.6059    5.9942    1.6250 C   0  0  0  0  0  0  0  0  0  0  0  0
    0.0189    5.0071    3.7803 C   0  0  0  0  0  0  0  0  0  0  0  0
    0.7592    6.9269    2.5331 C   0  0  0  0  0  0  0  0  0  0  0  0
    0.0524    4.4018    0.5919 C   0  0  0  0  0  0  0  0  0  0  0  0
   -0.3469    2.9380    0.3113 C   0  0  0  0  0  0  0  0  0  0  0  0
   -0.3436    7.2605    4.6744 C   0  0  0  0  0  0  0  0  0  0  0  0
    0.7837    2.0755   -0.2683 C   0  0  0  0  0  0  0  0  0  0  0  0
   -0.5460    6.8481    6.1473 C   0  0  0  0  0  0  0  0  0  0  0  0
   -0.3507    0.3828   -1.7275 C   0  0  0  0  0  0  0  0  0  0  0  0
    0.3134   -0.1908    0.6482 C   0  0  0  0  0  0  0  0  0  0  0  0
   -1.2117   -0.7244   -1.8673 C   0  0  0  0  0  0  0  0  0  0  0  0
   -0.5278   -1.3143    0.7367 C   0  0  0  0  0  0  0  0  0  0  0  0
   -0.1388    1.1495   -2.8980 C   0  0  0  0  0  0  0  0  0  0  0  0
    1.1890    0.0149    1.7429 C   0  0  0  0  0  0  0  0  0  0  0  0
   -0.7341    0.8385   -4.1414 C   0  0  0  0  0  0  0  0  0  0  0  0
   -1.7931   -1.0544   -3.1085 C   0  0  0  0  0  0  0  0  0  0  0  0
   -0.5153   -2.1597    1.8678 C   0  0  0  0  0  0  0  0  0  0  0  0
   -1.5501   -0.2826   -4.2384 C   0  0  0  0  0  0  0  0  0  0  0  0
    1.1971   -0.8288    2.8659 C   0  0  0  0  0  0  0  0  0  0  0  0
    0.3478   -1.9091    2.9311 C   0  0  0  0  0  0  0  0  0  0  0  0
   -0.4904    1.7010   -5.3568 C   0  0  0  0  0  0  0  0  0  0  0  0
  1 20  1  0  0  0  0
  1 21  1  0  0  0  0
  2 30  1  0  0  0  0
  3 30  1  0  0  0  0
  4 30  1  0  0  0  0
  5 17  1  0  0  0  0
  6  9  1  0  0  0  0
  6 10  1  0  0  0  0
  6 13  1  0  0  0  0
  7 11  1  0  0  0  0
  7 12  1  0  0  0  0
  7 15  1  0  0  0  0
  8 16  1  0  0  0  0
  8 18  1  0  0  0  0
  8 19  1  0  0  0  0
  9 11  1  0  0  0  0
 10 12  1  0  0  0  0
 13 14  1  0  0  0  0
 14 16  1  0  0  0  0
 15 17  1  0  0  0  0
 18 20  2  0  0  0  0
 18 22  1  0  0  0  0
 19 21  1  0  0  0  0
 19 23  2  0  0  0  0
 20 25  1  0  0  0  0
 21 26  2  0  0  0  0
 22 24  2  0  0  0  0
 23 28  1  0  0  0  0
 24 27  1  0  0  0  0
 24 30  1  0  0  0  0
 25 27  2  0  0  0  0
 26 29  1  0  0  0  0
 28 29  2  0  0  0  0
M  END
