
 OpenBabel10141417523D

 30 33  0  0  0  0  0  0  0  0999 V2000
   -2.4816    2.8505    0.1805 C   0  0  0  0  0  0  0  0  0  0  0  0
   -1.7418    3.1054   -0.9807 C   0  0  0  0  0  0  0  0  0  0  0  0
   -0.3997    2.7279   -1.0555 C   0  0  0  0  0  0  0  0  0  0  0  0
    0.2121    2.1054    0.0317 C   0  0  0  0  0  0  0  0  0  0  0  0
   -0.5322    1.8046    1.1737 C   0  0  0  0  0  0  0  0  0  0  0  0
   -1.8884    2.1383    1.2345 C   0  0  0  0  0  0  0  0  0  0  0  0
   -2.8585    1.6444    2.6503 S   0  0  0  0  0  0  0  0  0  0  0  0
   -4.4517    1.2143    1.7916 C   0  0  3  0  0  0  0  0  0  0  0  0
   -4.8338    2.0774    0.5353 C   0  0  3  0  0  0  0  0  0  0  0  0
   -3.8972    3.2546    0.3106 C   0  0  0  0  0  0  0  0  0  0  0  0
   -4.9574    1.3006   -0.7630 C   0  0  0  0  0  0  0  0  0  0  0  0
   -4.4249   -0.2739    1.5415 C   0  0  0  0  0  0  0  0  0  0  0  0
   -4.5742   -0.8288    0.3218 C   0  0  0  0  0  0  0  0  0  0  0  0
   -4.7908   -0.0352   -0.8702 C   0  0  0  0  0  0  0  0  0  0  0  0
   -4.3141    4.5364    0.3796 C   0  0  0  0  0  0  0  0  0  0  0  0
   -3.4654    5.7790    0.3011 C   0  0  0  0  0  0  0  0  0  0  0  0
   -2.9622    6.2172    1.6900 C   0  0  0  0  0  0  0  0  0  0  0  0
   -2.1376    7.4468    1.6776 N   0  0  0  0  0  0  0  0  0  0  0  0
    0.1667    6.3530    1.5247 C   0  0  0  0  0  0  0  0  0  0  0  0
   -0.8972    7.2859    0.8854 C   0  0  0  0  0  0  0  0  0  0  0  0
   -1.7463    7.8220    3.0590 C   0  0  0  0  0  0  0  0  0  0  0  0
   -0.7109    6.8649    3.7027 C   0  0  0  0  0  0  0  0  0  0  0  0
    0.5373    6.6964    2.9240 N   0  0  0  0  0  0  0  0  0  0  0  0
    1.4007    7.9004    2.9359 C   0  0  0  0  0  0  0  0  0  0  0  0
    1.8680    8.3270    4.3375 C   0  0  0  0  0  0  0  0  0  0  0  0
    2.5861    7.2738    4.9711 O   0  0  0  0  0  0  0  0  0  0  0  0
   -4.8253   -0.7294   -2.2122 C   0  0  0  0  0  0  0  0  0  0  0  0
   -4.6421   -2.0727   -2.1276 F   0  0  0  0  0  0  0  0  0  0  0  0
   -6.0121   -0.5366   -2.8451 F   0  0  0  0  0  0  0  0  0  0  0  0
   -3.8600   -0.2561   -3.0433 F   0  0  0  0  0  0  0  0  0  0  0  0
  1  2  1  0  0  0  0
  1  6  2  0  0  0  0
  1 10  1  0  0  0  0
  2  3  2  0  0  0  0
  3  4  1  0  0  0  0
  4  5  2  0  0  0  0
  5  6  1  0  0  0  0
  6  7  1  0  0  0  0
  7  8  1  0  0  0  0
  8  9  1  0  0  0  0
  8 12  1  0  0  0  0
  9 10  1  0  0  0  0
 10 15  2  3  0  0  0
 11  9  1  0  0  0  0
 11 14  2  0  0  0  0
 12 13  2  0  0  0  0
 13 14  1  0  0  0  0
 14 27  1  0  0  0  0
 15 16  1  0  0  0  0
 16 17  1  0  0  0  0
 17 18  1  0  0  0  0
 18 21  1  0  0  0  0
 19 20  1  0  0  0  0
 19 23  1  0  0  0  0
 20 18  1  0  0  0  0
 21 22  1  0  0  0  0
 22 23  1  0  0  0  0
 23 24  1  0  0  0  0
 24 25  1  0  0  0  0
 25 26  1  0  0  0  0
 27 28  1  0  0  0  0
 27 29  1  0  0  0  0
 27 30  1  0  0  0  0
M  END
