
 OpenBabel10141417513D

 22 23  0  0  0  0  0  0  0  0999 V2000
    4.6763    2.3571   -4.8547 F   0  0  0  0  0  0  0  0  0  0  0  0
   12.0459   -4.9727   -3.3340 O   0  0  0  0  0  0  0  0  0  0  0  0
   10.1334   -3.9590   -4.0532 O   0  0  0  0  0  0  0  0  0  0  0  0
    7.3192   -0.1343    0.3226 N   0  0  0  0  0  0  0  0  0  0  0  0
    7.8486   -1.9212   -1.0480 N   0  0  0  0  0  0  0  0  0  0  0  0
   11.1296   -3.4187   -2.0409 N   0  0  0  0  0  0  0  0  0  0  0  0
    8.1549   -3.7496   -2.3908 N   0  0  0  0  0  0  0  0  0  0  0  0
    7.4649    1.2675   -0.0619 C   0  0  0  0  0  0  0  0  0  0  0  0
    6.7234    1.5720   -1.3489 C   0  0  0  0  0  0  0  0  0  0  0  0
    8.2953   -0.9789   -0.2046 C   0  0  0  0  0  0  0  0  0  0  0  0
   10.1318   -2.6354   -1.4211 C   0  0  0  0  0  0  0  0  0  0  0  0
    9.6354   -0.8656    0.1368 C   0  0  0  0  0  0  0  0  0  0  0  0
    8.7453   -2.7318   -1.6452 C   0  0  0  0  0  0  0  0  0  0  0  0
    7.3595    1.4290   -2.5935 C   0  0  0  0  0  0  0  0  0  0  0  0
    5.3761    1.9698   -1.3152 C   0  0  0  0  0  0  0  0  0  0  0  0
   10.5616   -1.7082   -0.4721 C   0  0  0  0  0  0  0  0  0  0  0  0
    6.6675    1.6972   -3.7770 C   0  0  0  0  0  0  0  0  0  0  0  0
    4.6870    2.2373   -2.4994 C   0  0  0  0  0  0  0  0  0  0  0  0
    5.3394    2.0997   -3.7193 C   0  0  0  0  0  0  0  0  0  0  0  0
   11.0115   -4.1057   -3.2163 C   0  0  0  0  0  0  0  0  0  0  0  0
   11.9346   -5.8713   -4.4516 C   0  0  0  0  0  0  0  0  0  0  0  0
   10.8099   -6.8751   -4.2448 C   0  0  0  0  0  0  0  0  0  0  0  0
  1 19  1  0  0  0  0
  2 20  1  0  0  0  0
  2 21  1  0  0  0  0
  3 20  2  0  0  0  0
  4  8  1  0  0  0  0
  4 10  1  0  0  0  0
  5 10  2  0  0  0  0
  5 13  1  0  0  0  0
  6 11  1  0  0  0  0
  6 20  1  0  0  0  0
  7 13  1  0  0  0  0
  8  9  1  0  0  0  0
  9 14  2  0  0  0  0
  9 15  1  0  0  0  0
 10 12  1  0  0  0  0
 11 13  2  0  0  0  0
 11 16  1  0  0  0  0
 12 16  2  0  0  0  0
 14 17  1  0  0  0  0
 15 18  2  0  0  0  0
 17 19  2  0  0  0  0
 18 19  1  0  0  0  0
 21 22  1  0  0  0  0
M  END
