690
 OpenBabel10141417513D

 27 29  0  0  0  0  0  0  0  0999 V2000
    1.6113    3.4547   -5.4252 Cl  0  0  0  0  0  0  0  0  0  0  0  0
    1.2632    3.1253   -0.8165 F   0  0  0  0  0  0  0  0  0  0  0  0
    6.9862    1.9490    0.3745 O   0  0  0  0  0  0  0  0  0  0  0  0
    5.1319    1.5414   -0.9498 N   0  0  0  0  0  0  0  0  0  0  0  0
    5.0879   -1.6537    1.2852 N   0  0  0  0  0  0  0  0  0  0  0  0
    5.0423    4.5586   -0.3703 N   0  0  0  0  0  0  0  0  0  0  0  0
    5.2424    0.1002   -0.6112 C   0  0  0  0  0  0  0  0  0  0  0  0
    5.0433   -0.2173    0.9022 C   0  0  0  0  0  0  0  0  0  0  0  0
    4.2262    1.9999   -1.9751 C   0  0  0  0  0  0  0  0  0  0  0  0
    6.3946   -2.2719    1.0050 C   0  0  0  0  0  0  0  0  0  0  0  0
    4.6093   -1.8444    2.6709 C   0  0  0  0  0  0  0  0  0  0  0  0
    3.7334    3.3242   -2.0334 C   0  0  0  0  0  0  0  0  0  0  0  0
    6.1317    2.3714   -0.3998 C   0  0  0  0  0  0  0  0  0  0  0  0
    3.9000    4.2858   -0.9079 C   0  0  0  0  0  0  0  0  0  0  0  0
    6.1992    3.8198   -0.8738 C   0  0  0  0  0  0  0  0  0  0  0  0
    3.8161    1.1380   -3.0106 C   0  0  0  0  0  0  0  0  0  0  0  0
    2.9754    3.7865   -3.1284 C   0  0  0  0  0  0  0  0  0  0  0  0
    6.4665   -3.7575    1.3601 C   0  0  0  0  0  0  0  0  0  0  0  0
    5.3716   -1.1572    3.8052 C   0  0  0  0  0  0  0  0  0  0  0  0
    2.6858    4.9941   -0.3857 C   0  0  0  0  0  0  0  0  0  0  0  0
    2.9866    1.5765   -4.0569 C   0  0  0  0  0  0  0  0  0  0  0  0
    2.5906    2.9046   -4.1242 C   0  0  0  0  0  0  0  0  0  0  0  0
    1.4255    4.3860   -0.3888 C   0  0  0  0  0  0  0  0  0  0  0  0
    2.8070    6.2960    0.1181 C   0  0  0  0  0  0  0  0  0  0  0  0
    0.2972    5.0684    0.0586 C   0  0  0  0  0  0  0  0  0  0  0  0
    1.6761    6.9791    0.5794 C   0  0  0  0  0  0  0  0  0  0  0  0
    0.4214    6.3686    0.5426 C   0  0  0  0  0  0  0  0  0  0  0  0
  1 22  1  0  0  0  0
  2 23  1  0  0  0  0
  3 13  2  0  0  0  0
  4  7  1  0  0  0  0
  4  9  1  0  0  0  0
  4 13  1  0  0  0  0
  5  8  1  0  0  0  0
  5 10  1  0  0  0  0
  5 11  1  0  0  0  0
  6 14  2  0  0  0  0
  6 15  1  0  0  0  0
  7  8  1  0  0  0  0
  9 12  2  0  0  0  0
  9 16  1  0  0  0  0
 10 18  1  0  0  0  0
 11 19  1  0  0  0  0
 12 14  1  0  0  0  0
 12 17  1  0  0  0  0
 13 15  1  0  0  0  0
 14 20  1  0  0  0  0
 16 21  2  0  0  0  0
 17 22  2  0  0  0  0
 20 23  1  0  0  0  0
 20 24  2  0  0  0  0
 21 22  1  0  0  0  0
 23 25  2  0  0  0  0
 24 26  1  0  0  0  0
 25 27  1  0  0  0  0
 26 27  2  0  0  0  0
M  END
