
 OpenBabel10141417503D

 37 41  0  0  1  0  0  0  0  0999 V2000
    4.4252    4.2489   -0.3366 C   0  0  0  0  0  0  0  0  0  0  0  0
    3.3466    3.7942   -1.2298 C   0  0  0  0  0  0  0  0  0  0  0  0
    2.9356    2.3810   -1.1238 C   0  0  0  0  0  0  0  0  0  0  0  0
    3.4954    1.5380   -0.2360 C   0  0  0  0  0  0  0  0  0  0  0  0
    4.5991    1.9519    0.7617 C   0  0  2  0  0  0  0  0  0  0  0  0
    4.9773    3.4173    0.5564 C   0  0  0  0  0  0  0  0  0  0  0  0
    2.9700    0.1320   -0.1105 C   0  0  2  0  0  0  0  0  0  0  0  0
    2.5223   -0.1570    1.3157 C   0  0  0  0  0  0  0  0  0  0  0  0
    3.6258    0.1641    2.3495 C   0  0  2  0  0  0  0  0  0  0  0  0
    4.0545    1.6556    2.2301 C   0  0  2  0  0  0  0  0  0  0  0  0
    3.1993   -0.2859    3.7600 C   0  0  1  0  0  0  0  0  0  0  0  0
    4.1460    0.1162    4.9156 C   0  0  2  0  0  0  0  0  0  0  0  0
    4.4392    1.6370    4.7943 C   0  0  0  0  0  0  0  0  0  0  0  0
    4.9772    2.0687    3.4094 C   0  0  2  0  0  0  0  0  0  0  0  0
    1.8469    0.2532    4.2055 C   0  0  0  0  0  0  0  0  0  0  0  0
    1.8051    0.0841    5.7348 C   0  0  2  0  0  0  0  0  0  0  0  0
    3.2657   -0.3085    6.2057 C   0  0  1  0  0  0  0  0  0  0  0  0
    2.8105    4.5536   -2.0261 O   0  0  0  0  0  0  0  0  0  0  0  0
    5.8964    1.1631    0.4515 C   0  0  0  0  0  0  0  0  0  0  0  0
    2.9106    2.4168    2.3850 F   0  0  0  0  0  0  0  0  0  0  0  0
    5.1327    3.4922    3.4658 O   0  0  0  0  0  0  0  0  0  0  0  0
    5.4851   -0.6468    4.8154 C   0  0  0  0  0  0  0  0  0  0  0  0
    3.4409   -1.7492    6.3658 O   0  0  0  0  0  0  0  0  0  0  0  0
    0.6315   -0.8342    6.0537 C   0  0  0  0  0  0  0  0  0  0  0  0
    3.9364   -0.7656   -0.4457 F   0  0  0  0  0  0  0  0  0  0  0  0
    3.7179    0.5317    7.4649 C   0  0  0  0  0  0  0  0  0  0  0  0
    3.2435    1.6247    7.7533 O   0  0  0  0  0  0  0  0  0  0  0  0
    5.0217   -0.1576    8.4490 S   0  0  0  0  0  0  0  0  0  0  0  0
    5.5444    1.2816    9.3729 C   0  0  0  0  0  0  0  0  0  0  0  0
    6.0645    2.2009    8.5214 F   0  0  0  0  0  0  0  0  0  0  0  0
    3.0373   -2.3948    7.5069 C   0  0  0  0  0  0  0  0  0  0  0  0
    4.0492   -3.3359    7.9437 C   0  0  0  0  0  0  0  0  0  0  0  0
    2.0422   -2.1392    8.1454 O   0  0  0  0  0  0  0  0  0  0  0  0
    4.0833   -4.1451    9.0673 C   0  0  0  0  0  0  0  0  0  0  0  0
    5.3333   -4.8074    9.0532 C   0  0  0  0  0  0  0  0  0  0  0  0
    6.0092   -4.3201    7.9604 C   0  0  0  0  0  0  0  0  0  0  0  0
    5.2434   -3.4296    7.2818 O   0  0  0  0  0  0  0  0  0  0  0  0
  1  2  1  0  0  0  0
  1  6  2  0  0  0  0
  2  3  1  0  0  0  0
  2 18  2  0  0  0  0
  3  4  2  0  0  0  0
  4  5  1  0  0  0  0
  4  7  1  0  0  0  0
  5  6  1  0  0  0  0
  5 10  1  0  0  0  0
  5 19  1  1  0  0  0
  7  8  1  0  0  0  0
  7 25  1  1  0  0  0
  9  8  1  1  0  0  0
  9 10  1  0  0  0  0
  9 11  1  0  0  0  0
 10 14  1  0  0  0  0
 10 20  1  6  0  0  0
 11 12  1  0  0  0  0
 11 15  1  1  0  0  0
 12 13  1  0  0  0  0
 12 17  1  0  0  0  0
 12 22  1  1  0  0  0
 13 14  1  0  0  0  0
 14 21  1  1  0  0  0
 15 16  1  0  0  0  0
 16 17  1  0  0  0  0
 16 24  1  6  0  0  0
 17 23  1  1  0  0  0
 17 26  1  0  0  0  0
 26 27  2  0  0  0  0
 26 28  1  0  0  0  0
 28 29  1  0  0  0  0
 29 30  1  0  0  0  0
 31 32  1  0  0  0  0
 31 23  1  0  0  0  0
 31 33  2  0  0  0  0
 32 34  2  0  0  0  0
 32 37  1  0  0  0  0
 34 35  1  0  0  0  0
 35 36  2  0  0  0  0
 36 37  1  0  0  0  0
M  END
