
 OpenBabel10141418003D

 28 30  0  0  0  0  0  0  0  0999 V2000
   -2.0626   -2.8335   -4.1795 C   0  0  0  0  0  0  0  0  0  0  0  0
    6.3847   -5.2317   -3.8736 C   0  0  0  0  0  0  0  0  0  0  0  0
    6.6420   -4.7044   -5.1360 C   0  0  0  0  0  0  0  0  0  0  0  0
    5.0689   -5.4595   -3.4761 C   0  0  0  0  0  0  0  0  0  0  0  0
   -0.4896   -3.5246   -8.9457 C   0  0  0  0  0  0  0  0  0  0  0  0
    5.5820   -4.4043   -5.9980 C   0  0  0  0  0  0  0  0  0  0  0  0
    4.0073   -5.1539   -4.3377 C   0  0  0  0  0  0  0  0  0  0  0  0
   -1.2763   -2.4838   -8.4758 C   0  0  0  0  0  0  0  0  0  0  0  0
    0.5445   -4.0332   -8.1527 C   0  0  0  0  0  0  0  0  0  0  0  0
    2.9653   -3.4485   -1.0943 C   0  0  0  0  0  0  0  0  0  0  0  0
    0.9792   -4.7393   -1.8003 C   0  0  0  0  0  0  0  0  0  0  0  0
    3.2887   -4.5930   -0.1300 C   0  0  0  0  0  0  0  0  0  0  0  0
    1.4135   -5.8275   -0.8188 C   0  0  0  0  0  0  0  0  0  0  0  0
    0.1204   -2.0148   -4.9319 C   0  0  0  0  0  0  0  0  0  0  0  0
   -0.3893   -2.2580   -2.5666 C   0  0  0  0  0  0  0  0  0  0  0  0
    4.2517   -4.6282   -5.6073 C   0  0  0  0  0  0  0  0  0  0  0  0
   -0.0229   -2.4896   -6.3734 C   0  0  0  0  0  0  0  0  0  0  0  0
   -1.0525   -1.9720   -7.1994 C   0  0  0  0  0  0  0  0  0  0  0  0
    0.8459   -3.4937   -6.8903 C   0  0  0  0  0  0  0  0  0  0  0  0
    1.0938   -2.2791   -2.1346 C   0  0  0  0  0  0  0  0  0  0  0  0
    3.1184   -4.2672   -6.5068 C   0  0  0  0  0  0  0  0  0  0  0  0
   -2.1147   -0.6890   -6.7103 Cl  0  0  0  0  0  0  0  0  0  0  0  0
    1.9305   -3.9478   -6.1002 N   0  0  0  0  0  0  0  0  0  0  0  0
   -0.6153   -2.8294   -3.9216 N   0  0  0  0  0  0  0  0  0  0  0  0
    1.5502   -3.4306   -1.4813 N   0  0  0  0  0  0  0  0  0  0  0  0
    1.8063   -1.3017   -2.3100 O   0  0  0  0  0  0  0  0  0  0  0  0
    3.5466   -4.3075   -7.7841 O   0  0  0  0  0  0  0  0  0  0  0  0
    2.8362   -5.8517   -0.6500 O   0  0  0  0  0  0  0  0  0  0  0  0
  3  2  2  0  0  0  0
  4  2  1  0  0  0  0
  6  3  1  0  0  0  0
  7  4  2  0  0  0  0
  8  5  2  0  0  0  0
  9  5  1  0  0  0  0
 12 10  1  0  0  0  0
 13 11  1  0  0  0  0
 16  6  2  0  0  0  0
 16  7  1  0  0  0  0
 17 14  1  0  0  0  0
 18  8  1  0  0  0  0
 18 17  2  0  0  0  0
 19  9  2  0  0  0  0
 19 17  1  0  0  0  0
 20 15  1  0  0  0  0
 21 16  1  0  0  0  0
 22 18  1  0  0  0  0
 23 19  1  0  0  0  0
 23 21  2  3  0  0  0
 24  1  1  0  0  0  0
 24 14  1  0  0  0  0
 24 15  1  0  0  0  0
 25 10  1  0  0  0  0
 25 11  1  0  0  0  0
 25 20  1  0  0  0  0
 26 20  2  0  0  0  0
 27 21  1  0  0  0  0
 28 12  1  0  0  0  0
 28 13  1  0  0  0  0
M  END
