
 OpenBabel10141417503D

101 95  0  0  1  0  0  0  0  0999 V2000
   12.1222   -2.7420   -2.4761 C   0  0  2  0  0  0  0  0  0  0  0  0
   13.3869   -1.8912   -2.5806 C   0  0  1  0  0  0  0  0  0  0  0  0
   12.6075   -3.6722   -1.4808 O   0  0  0  0  0  0  0  0  0  0  0  0
   14.2471   -2.6859   -3.5399 C   0  0  2  0  0  0  0  0  0  0  0  0
   13.6225   -4.5613   -1.8635 C   0  0  1  0  0  0  0  0  0  0  0  0
   14.4981   -4.1301   -3.0552 C   0  0  1  0  0  0  0  0  0  0  0  0
   11.6525   -3.4212   -3.6917 O   0  0  0  0  0  0  0  0  0  0  0  0
   13.2681   -0.4353   -2.8359 N   0  0  0  0  0  0  0  0  0  0  0  0
   15.4993   -2.0303   -3.6960 O   0  0  0  0  0  0  0  0  0  0  0  0
   14.3009   -4.9805   -4.2070 O   0  0  0  0  0  0  0  0  0  0  0  0
   14.4535   -4.9097   -0.6138 C   0  0  0  0  0  0  0  0  0  0  0  0
   13.7663   -5.7214    0.3344 O   0  0  0  0  0  0  0  0  0  0  0  0
    8.6798   -4.3834   -4.5819 C   0  0  1  0  0  0  0  0  0  0  0  0
    9.2941   -4.4293   -6.0018 C   0  0  1  0  0  0  0  0  0  0  0  0
    8.3397   -3.0272   -4.2891 O   0  0  0  0  0  0  0  0  0  0  0  0
   10.6090   -3.5899   -6.0009 C   0  0  2  0  0  0  0  0  0  0  0  0
    9.4602   -2.0959   -4.3407 C   0  0  1  0  0  0  0  0  0  0  0  0
   10.8552   -2.7473   -4.7228 C   0  0  1  0  0  0  0  0  0  0  0  0
    7.6009   -5.3402   -4.3463 O   0  0  0  0  0  0  0  0  0  0  0  0
    9.6436   -5.7579   -6.4348 O   0  0  0  0  0  0  0  0  0  0  0  0
   10.5695   -2.7217   -7.1601 O   0  0  0  0  0  0  0  0  0  0  0  0
    9.1280   -0.7326   -5.1140 C   0  0  0  0  0  0  0  0  0  0  0  0
   10.0918   -0.2949   -5.9755 O   0  0  0  0  0  0  0  0  0  0  0  0
    6.0006   -6.9988   -0.5984 C   0  0  2  0  0  0  0  0  0  0  0  0
    5.7628   -5.4304   -1.0069 C   0  0  1  0  0  0  0  0  0  0  0  0
    6.6796   -7.8821   -1.5112 O   0  0  0  0  0  0  0  0  0  0  0  0
    6.9913   -4.8196   -1.8101 C   0  0  2  0  0  0  0  0  0  0  0  0
    7.6439   -7.3757   -2.5062 C   0  0  1  0  0  0  0  0  0  0  0  0
    7.3036   -5.8510   -2.9689 C   0  0  1  0  0  0  0  0  0  0  0  0
    4.9749   -7.7654    0.1774 O   0  0  0  0  0  0  0  0  0  0  0  0
    4.4442   -4.8779   -1.5358 N   0  0  0  0  0  0  0  0  0  0  0  0
    7.9887   -4.5585   -0.7988 O   0  0  0  0  0  0  0  0  0  0  0  0
    9.0633   -8.1619   -2.4263 C   0  0  0  0  0  0  0  0  0  0  0  0
   10.0896   -7.8731   -3.3876 O   0  0  0  0  0  0  0  0  0  0  0  0
    1.9749  -10.5188   -0.3986 C   0  0  1  0  0  0  0  0  0  0  0  0
    3.2156  -10.3632   -1.3151 C   0  0  1  0  0  0  0  0  0  0  0  0
    1.9340   -9.5539    0.7503 O   0  0  0  0  0  0  0  0  0  0  0  0
    3.5069   -8.9198   -1.6142 C   0  0  2  0  0  0  0  0  0  0  0  0
    2.4502   -8.2166    0.5730 C   0  0  2  0  0  0  0  0  0  0  0  0
    3.6650   -7.9793   -0.3806 C   0  0  1  0  0  0  0  0  0  0  0  0
    0.7469  -10.8169   -1.1505 O   0  0  0  0  0  0  0  0  0  0  0  0
    4.3695  -11.0157   -0.8128 O   0  0  0  0  0  0  0  0  0  0  0  0
    2.3012   -8.5855   -2.3690 O   0  0  0  0  0  0  0  0  0  0  0  0
    2.2228   -7.0667    1.6812 C   0  0  0  0  0  0  0  0  0  0  0  0
    3.2020   -6.7460    2.5519 O   0  0  0  0  0  0  0  0  0  0  0  0
   -1.2437  -13.9079   -1.2370 C   0  0  2  0  0  0  0  0  0  0  0  0
    0.0955  -14.5502   -1.6051 C   0  0  1  0  0  0  0  0  0  0  0  0
   -1.4579  -12.7013   -1.9616 O   0  0  0  0  0  0  0  0  0  0  0  0
    1.0614  -13.4317   -1.3127 C   0  0  2  0  0  0  0  0  0  0  0  0
   -0.4636  -12.1576   -2.8366 C   0  0  1  0  0  0  0  0  0  0  0  0
    0.8391  -12.0664   -2.0420 C   0  0  1  0  0  0  0  0  0  0  0  0
   -1.3084  -13.4580    0.1378 O   0  0  0  0  0  0  0  0  0  0  0  0
    0.4661  -15.8425   -0.8615 N   0  0  0  0  0  0  0  0  0  0  0  0
    2.2196  -14.1218   -1.6615 O   0  0  0  0  0  0  0  0  0  0  0  0
   -0.3078  -12.8456   -4.2486 C   0  0  0  0  0  0  0  0  0  0  0  0
   -1.4063  -12.5667   -5.1188 O   0  0  0  0  0  0  0  0  0  0  0  0
   -1.1272  -14.4670    1.1025 C   0  0  0  0  0  0  0  0  0  0  0  0
   12.4903   -5.1404    1.1454 S   0  0  0  0  0  0  0  0  0  0  0  0
   12.8298   -3.8073    1.6287 O   0  0  0  0  0  0  0  0  0  0  0  0
   11.3323   -5.2182    0.2746 O   0  0  0  0  0  0  0  0  0  0  0  0
   12.2402   -6.0299    2.2684 O   0  5  0  0  0  0  0  0  0  0  0  0
   12.4621    0.1083   -4.1574 S   0  0  0  0  0  0  0  0  0  0  0  0
   11.1450   -0.4850   -3.7271 O   0  0  0  0  0  0  0  0  0  0  0  0
   12.3949    1.5236   -4.1624 O   0  0  0  0  0  0  0  0  0  0  0  0
   13.1871   -0.5011   -5.2767 O   0  5  0  0  0  0  0  0  0  0  0  0
   10.7870   -6.5051   -3.0166 S   0  0  0  0  0  0  0  0  0  0  0  0
   11.6646   -6.8762   -1.9723 O   0  0  0  0  0  0  0  0  0  0  0  0
   11.4682   -6.1359   -4.2480 O   0  0  0  0  0  0  0  0  0  0  0  0
    9.4706   -5.8219   -2.6544 O   0  5  0  0  0  0  0  0  0  0  0  0
    3.6661   -5.2290   -2.9639 S   0  0  0  0  0  0  0  0  0  0  0  0
    4.5755   -5.3091   -4.0353 O   0  0  0  0  0  0  0  0  0  0  0  0
    3.0833   -6.6104   -2.6575 O   0  0  0  0  0  0  0  0  0  0  0  0
    2.6250   -4.2850   -3.1591 O   0  5  0  0  0  0  0  0  0  0  0  0
   -2.8234  -13.2889   -4.7143 S   0  0  0  0  0  0  0  0  0  0  0  0
   -3.7078  -13.0650   -5.8471 O   0  0  0  0  0  0  0  0  0  0  0  0
   -2.4319  -14.6793   -4.4876 O   0  0  0  0  0  0  0  0  0  0  0  0
   -3.2479  -12.5587   -3.5289 O   0  5  0  0  0  0  0  0  0  0  0  0
    1.9257  -16.7036   -1.2165 S   0  0  0  0  0  0  0  0  0  0  0  0
    1.6582  -17.9483   -0.5090 O   0  0  0  0  0  0  0  0  0  0  0  0
    1.9515  -16.7849   -2.6717 O   0  0  0  0  0  0  0  0  0  0  0  0
    3.0263  -15.9917   -0.5754 O   0  5  0  0  0  0  0  0  0  0  0  0
    4.2992  -12.6414   -0.8693 S   0  0  0  0  0  0  0  0  0  0  0  0
    5.6180  -13.1216   -0.4957 O   0  0  0  0  0  0  0  0  0  0  0  0
    3.3181  -12.9006    0.1811 O   0  0  0  0  0  0  0  0  0  0  0  0
    3.9532  -12.8339   -2.2834 O   0  5  0  0  0  0  0  0  0  0  0  0
    8.1646    0.0011   -4.9428 O   0  0  0  0  0  0  0  0  0  0  0  0
    1.1407   -6.4889    1.8038 O   0  0  0  0  0  0  0  0  0  0  0  0
    9.1503   -3.4272   -0.9760 S   0  0  0  0  0  0  0  0  0  0  0  0
   10.1731   -3.9909   -1.8636 O   0  0  0  0  0  0  0  0  0  0  0  0
    8.4583   -2.2598   -1.5601 O   0  0  0  0  0  0  0  0  0  0  0  0
    9.6005   -3.1052    0.3879 O   0  5  0  0  0  0  0  0  0  0  0  0
   13.6749   -7.2430   -2.5521 Na  0  3  0  0  0 15  0  0  0  0  0  0
    4.6717   15.3627   -3.5587 Na  0  3  0  0  0 15  0  0  0  0  0  0
  -11.4248    5.6535  -10.4208 Na  0  3  0  0  0 15  0  0  0  0  0  0
   -0.9508   -8.8066    2.0633 Na  0  3  0  0  0 15  0  0  0  0  0  0
  -11.7173  -10.1507    1.3500 Na  0  3  0  0  0 15  0  0  0  0  0  0
   11.5726  -16.7101   -4.2081 Na  0  3  0  0  0 15  0  0  0  0  0  0
   -2.5124    6.3734   12.8003 Na  0  3  0  0  0 15  0  0  0  0  0  0
    7.8823  -12.3812    3.2792 Na  0  3  0  0  0 15  0  0  0  0  0  0
    3.7717   -5.1653   -6.0613 Na  0  3  0  0  0 15  0  0  0  0  0  0
   10.4857   -4.5794    2.6732 Na  0  3  0  0  0 15  0  0  0  0  0  0
  1  2  1  0  0  0  0
  1  3  1  0  0  0  0
  1  7  1  6  0  0  0
  2  4  1  0  0  0  0
  2  8  1  6  0  0  0
  3  5  1  0  0  0  0
  4  6  1  0  0  0  0
  4  9  1  1  0  0  0
  5  6  1  0  0  0  0
  5 11  1  1  0  0  0
  6 10  1  6  0  0  0
  8 62  1  0  0  0  0
 12 11  1  0  0  0  0
 12 58  1  0  0  0  0
 13 14  1  0  0  0  0
 13 15  1  0  0  0  0
 13 19  1  6  0  0  0
 14 16  1  0  0  0  0
 14 20  1  1  0  0  0
 15 17  1  0  0  0  0
 16 18  1  0  0  0  0
 16 21  1  6  0  0  0
 17 18  1  0  0  0  0
 17 22  1  6  0  0  0
 18  7  1  1  0  0  0
 22 86  2  0  0  0  0
 23 22  1  0  0  0  0
 24 25  1  0  0  0  0
 24 26  1  0  0  0  0
 24 30  1  6  0  0  0
 25 27  1  0  0  0  0
 25 31  1  6  0  0  0
 26 28  1  0  0  0  0
 27 29  1  0  0  0  0
 27 32  1  1  0  0  0
 28 29  1  0  0  0  0
 28 33  1  1  0  0  0
 29 19  1  6  0  0  0
 31 70  1  0  0  0  0
 32 88  1  0  0  0  0
 34 33  1  0  0  0  0
 34 66  1  0  0  0  0
 35 36  1  0  0  0  0
 35 37  1  0  0  0  0
 35 41  1  6  0  0  0
 36 38  1  0  0  0  0
 36 42  1  1  0  0  0
 37 39  1  0  0  0  0
 38 40  1  0  0  0  0
 38 43  1  6  0  0  0
 39 40  1  0  0  0  0
 39 44  1  1  0  0  0
 40 30  1  1  0  0  0
 42 82  1  0  0  0  0
 44 87  2  0  0  0  0
 45 44  1  0  0  0  0
 46 47  1  0  0  0  0
 46 48  1  0  0  0  0
 46 52  1  1  0  0  0
 47 49  1  0  0  0  0
 47 53  1  1  0  0  0
 48 50  1  0  0  0  0
 49 51  1  0  0  0  0
 49 54  1  6  0  0  0
 50 51  1  0  0  0  0
 50 55  1  6  0  0  0
 51 41  1  1  0  0  0
 52 57  1  0  0  0  0
 53 78  1  0  0  0  0
 56 55  1  0  0  0  0
 56 74  1  0  0  0  0
 59 58  2  0  0  0  0
 60 58  2  0  0  0  0
 61 58  1  0  0  0  0
 63 62  2  0  0  0  0
 64 62  2  0  0  0  0
 65 62  1  0  0  0  0
 67 66  2  0  0  0  0
 68 66  2  0  0  0  0
 69 66  1  0  0  0  0
 71 70  2  0  0  0  0
 72 70  2  0  0  0  0
 73 70  1  0  0  0  0
 75 74  2  0  0  0  0
 76 74  2  0  0  0  0
 77 74  1  0  0  0  0
 79 78  2  0  0  0  0
 80 78  2  0  0  0  0
 81 78  1  0  0  0  0
 83 82  2  0  0  0  0
 84 82  2  0  0  0  0
 85 82  1  0  0  0  0
 88 89  2  0  0  0  0
 88 90  2  0  0  0  0
 88 91  1  0  0  0  0
M  CHG  8  61  -1  65  -1  69  -1  73  -1  77  -1  81  -1  85  -1  91  -1
M  CHG  8  92   1  93   1  94   1  95   1  96   1  97   1  98   1  99   1
M  CHG  2 100   1 101   1
M  END
