219090
 OpenBabel10141417483D

 41 44  0  0  1  0  0  0  0  0999 V2000
    8.5873   -2.1017    1.5016 P   0  0  0  0  0  0  0  0  0  0  0  0
   -0.3630    3.4829   -2.1015 F   0  0  0  0  0  0  0  0  0  0  0  0
    6.5724   10.6983   -3.6833 F   0  0  0  0  0  0  0  0  0  0  0  0
    4.6910   10.9847   -4.7341 F   0  0  0  0  0  0  0  0  0  0  0  0
    5.4123   12.5073   -3.3592 F   0  0  0  0  0  0  0  0  0  0  0  0
    0.5212    9.9870    0.2564 F   0  0  0  0  0  0  0  0  0  0  0  0
    0.9894   11.9859   -0.4537 F   0  0  0  0  0  0  0  0  0  0  0  0
    0.2530   10.4855   -1.8438 F   0  0  0  0  0  0  0  0  0  0  0  0
    4.8207    5.2598    1.6320 O   0  0  0  0  0  0  0  0  0  0  0  0
    4.7836    6.5372   -0.3315 O   0  0  0  0  0  0  0  0  0  0  0  0
    5.8209   -2.0197    2.6607 O   0  0  0  0  0  0  0  0  0  0  0  0
    9.9064   -1.4449    0.8510 O   0  0  0  0  0  0  0  0  0  0  0  0
    9.0853   -2.1864    3.0197 O   0  0  0  0  0  0  0  0  0  0  0  0
    8.3714   -3.4531    0.9068 O   0  0  0  0  0  0  0  0  0  0  0  0
    5.6609    2.8628    0.2644 N   0  0  0  0  0  0  0  0  0  0  0  0
    7.3179    0.0239    0.3301 N   0  0  0  0  0  0  0  0  0  0  0  0
    5.2746   -0.2508    1.2675 N   0  0  0  0  0  0  0  0  0  0  0  0
    7.3952   -0.9333    1.3668 N   0  0  0  0  0  0  0  0  0  0  0  0
    5.0791    4.0414   -0.4979 C   0  0  2  0  0  0  0  0  0  0  0  0
    5.3454    5.3859    0.3063 C   0  0  2  0  0  0  0  0  0  0  0  0
    5.2174    2.8629    1.6760 C   0  0  0  0  0  0  0  0  0  0  0  0
    5.4667    4.2148    2.3434 C   0  0  0  0  0  0  0  0  0  0  0  0
    5.4303    1.5697   -0.4068 C   0  0  0  0  0  0  0  0  0  0  0  0
    3.6043    3.8953   -0.9304 C   0  0  0  0  0  0  0  0  0  0  0  0
    5.1550    7.7937    0.2581 C   0  0  1  0  0  0  0  0  0  0  0  0
    5.9942    0.4132    0.4096 C   0  0  0  0  0  0  0  0  0  0  0  0
    3.2480    3.9066   -2.2951 C   0  0  0  0  0  0  0  0  0  0  0  0
    2.5640    3.7684    0.0068 C   0  0  0  0  0  0  0  0  0  0  0  0
    4.4675    8.8721   -0.5707 C   0  0  0  0  0  0  0  0  0  0  0  0
    4.7989    7.9389    1.7462 C   0  0  0  0  0  0  0  0  0  0  0  0
    1.9076    3.7741   -2.6885 C   0  0  0  0  0  0  0  0  0  0  0  0
    1.2360    3.6008   -0.3833 C   0  0  0  0  0  0  0  0  0  0  0  0
    3.1345    9.2475   -0.3297 C   0  0  0  0  0  0  0  0  0  0  0  0
    5.1578    9.4990   -1.6190 C   0  0  0  0  0  0  0  0  0  0  0  0
    0.9166    3.6135   -1.7283 C   0  0  0  0  0  0  0  0  0  0  0  0
    6.1385   -1.1692    1.8569 C   0  0  0  0  0  0  0  0  0  0  0  0
    2.5064   10.2528   -1.0804 C   0  0  0  0  0  0  0  0  0  0  0  0
    4.5494   10.4972   -2.3989 C   0  0  0  0  0  0  0  0  0  0  0  0
    3.2247   10.8712   -2.1154 C   0  0  0  0  0  0  0  0  0  0  0  0
    5.2999   11.1611   -3.5294 C   0  0  0  0  0  0  0  0  0  0  0  0
    1.0841   10.6667   -0.7813 C   0  0  0  0  0  0  0  0  0  0  0  0
  1 12  1  0  0  0  0
  1 13  1  0  0  0  0
  1 14  2  0  0  0  0
  1 18  1  0  0  0  0
  2 35  1  0  0  0  0
  3 40  1  0  0  0  0
  4 40  1  0  0  0  0
  5 40  1  0  0  0  0
  6 41  1  0  0  0  0
  7 41  1  0  0  0  0
  8 41  1  0  0  0  0
  9 20  1  0  0  0  0
  9 22  1  0  0  0  0
 11 36  2  0  0  0  0
 15 19  1  0  0  0  0
 15 21  1  0  0  0  0
 15 23  1  0  0  0  0
 16 18  1  0  0  0  0
 16 26  1  0  0  0  0
 17 26  2  0  0  0  0
 17 36  1  0  0  0  0
 18 36  1  0  0  0  0
 19 20  1  0  0  0  0
 19 24  1  1  0  0  0
 20 10  1  6  0  0  0
 21 22  1  0  0  0  0
 23 26  1  0  0  0  0
 24 27  2  0  0  0  0
 24 28  1  0  0  0  0
 25 10  1  6  0  0  0
 25 29  1  0  0  0  0
 25 30  1  0  0  0  0
 27 31  1  0  0  0  0
 28 32  2  0  0  0  0
 29 33  2  0  0  0  0
 29 34  1  0  0  0  0
 31 35  2  0  0  0  0
 32 35  1  0  0  0  0
 33 37  1  0  0  0  0
 34 38  2  0  0  0  0
 37 39  2  0  0  0  0
 37 41  1  0  0  0  0
 38 39  1  0  0  0  0
 38 40  1  0  0  0  0
M  END
