1319
 OpenBabel10141417503D

 39 41  0  0  1  0  0  0  0  0999 V2000
    2.5933   -0.6985   -1.1498 S   0  0  0  0  0  0  0  0  0  0  0  0
    0.8447   -2.9495   -4.0557 P   0  0  0  0  0  0  0  0  0  0  0  0
    2.0847   -2.5060   -4.9896 O   0  0  0  0  0  0  0  0  0  0  0  0
    6.7857   -3.0066   -4.6457 O   0  0  0  0  0  0  0  0  0  0  0  0
    9.8573   -2.1690   -5.0859 O   0  0  0  0  0  0  0  0  0  0  0  0
    1.4217   -0.8838   -0.2519 O   0  0  0  0  0  0  0  0  0  0  0  0
    3.5878    0.2345   -0.8808 O   0  0  0  0  0  0  0  0  0  0  0  0
    0.9204   -4.5120   -3.7324 O   0  0  0  0  0  0  0  0  0  0  0  0
    1.1699   -2.6083   -2.5533 O   0  0  0  0  0  0  0  0  0  0  0  0
    5.7167   -4.9541   -5.2573 O   0  0  0  0  0  0  0  0  0  0  0  0
   -0.4928   -2.3768   -4.3508 O   0  0  0  0  0  0  0  0  0  0  0  0
    1.8420   -0.2802   -2.7412 N   0  0  0  0  0  0  0  0  0  0  0  0
    4.9523   -2.9386   -5.9728 N   0  0  0  0  0  0  0  0  0  0  0  0
    4.2335   -6.2016   -2.6652 N   0  0  0  0  0  0  0  0  0  0  0  0
    3.1705   -1.6657   -4.5830 C   0  0  1  0  0  0  0  0  0  0  0  0
    4.4228   -1.5937   -5.6186 C   0  0  2  0  0  0  0  0  0  0  0  0
    2.7610   -0.2664   -3.9910 C   0  0  0  0  0  0  0  0  0  0  0  0
    0.9999    1.0367   -2.6665 C   0  0  0  0  0  0  0  0  0  0  0  0
    4.0465   -0.8013   -6.8870 C   0  0  0  0  0  0  0  0  0  0  0  0
   -0.2839    0.9765   -1.7778 C   0  0  0  0  0  0  0  0  0  0  0  0
    5.1682   -0.4728   -7.8600 C   0  0  0  0  0  0  0  0  0  0  0  0
    8.0653   -3.6849   -4.5739 C   0  0  1  0  0  0  0  0  0  0  0  0
    3.3414   -2.3422   -1.2206 C   0  0  0  0  0  0  0  0  0  0  0  0
   -1.0616    2.3073   -1.7446 C   0  0  0  0  0  0  0  0  0  0  0  0
   -1.2650   -0.1293   -2.1683 C   0  0  0  0  0  0  0  0  0  0  0  0
    8.5400   -3.8875   -5.9993 C   0  0  0  0  0  0  0  0  0  0  0  0
    5.8019   -3.7266   -5.2800 C   0  0  0  0  0  0  0  0  0  0  0  0
    9.1150   -2.7342   -3.9898 C   0  0  0  0  0  0  0  0  0  0  0  0
    9.2212   -2.5734   -6.2982 C   0  0  0  0  0  0  0  0  0  0  0  0
    5.8365   -1.4642   -8.5926 C   0  0  0  0  0  0  0  0  0  0  0  0
    5.5557    0.8634   -8.0605 C   0  0  0  0  0  0  0  0  0  0  0  0
    4.4718   -2.5310   -1.9835 C   0  0  0  0  0  0  0  0  0  0  0  0
    2.7192   -3.4754   -0.6621 C   0  0  0  0  0  0  0  0  0  0  0  0
    6.9443   -1.1464   -9.3862 C   0  0  0  0  0  0  0  0  0  0  0  0
    6.6229    1.1872   -8.9051 C   0  0  0  0  0  0  0  0  0  0  0  0
    4.7500   -3.8437   -2.3992 C   0  0  0  0  0  0  0  0  0  0  0  0
    3.0436   -4.7795   -1.0843 C   0  0  0  0  0  0  0  0  0  0  0  0
    7.3440    0.1782   -9.5349 C   0  0  0  0  0  0  0  0  0  0  0  0
    4.0226   -4.9675   -2.0379 C   0  0  0  0  0  0  0  0  0  0  0  0
  1  6  2  0  0  0  0
  1  7  2  0  0  0  0
  1 12  1  0  0  0  0
  1 23  1  0  0  0  0
  2  3  1  0  0  0  0
  2  8  1  0  0  0  0
  2  9  1  0  0  0  0
  2 11  2  0  0  0  0
  4 27  1  0  0  0  0
  5 28  1  0  0  0  0
  5 29  1  0  0  0  0
 10 27  2  0  0  0  0
 12 17  1  0  0  0  0
 12 18  1  0  0  0  0
 13 27  1  0  0  0  0
 14 39  1  0  0  0  0
 15  3  1  6  0  0  0
 15 16  1  0  0  0  0
 15 17  1  0  0  0  0
 16 13  1  6  0  0  0
 16 19  1  0  0  0  0
 18 20  1  0  0  0  0
 19 21  1  0  0  0  0
 20 24  1  0  0  0  0
 20 25  1  0  0  0  0
 21 30  2  0  0  0  0
 21 31  1  0  0  0  0
 22  4  1  6  0  0  0
 22 26  1  0  0  0  0
 22 28  1  0  0  0  0
 23 32  2  0  0  0  0
 23 33  1  0  0  0  0
 26 29  1  0  0  0  0
 30 34  1  0  0  0  0
 31 35  2  0  0  0  0
 32 36  1  0  0  0  0
 33 37  2  0  0  0  0
 34 38  2  0  0  0  0
 35 38  1  0  0  0  0
 36 39  2  0  0  0  0
 37 39  1  0  0  0  0
M  END
