492
 OpenBabel10141417553D

 39 41  0  0  1  0  0  0  0  0999 V2000
    0.9654    0.0822    0.0453 P   0  0  3  0  0  0  0  0  0  0  0  0
   -2.4696   -2.6829   -4.1271 O   0  0  0  0  0  0  0  0  0  0  0  0
   -0.5673   -1.9869   -1.1746 O   0  0  0  0  0  0  0  0  0  0  0  0
   -4.4476   -1.6996   -3.7891 O   0  0  0  0  0  0  0  0  0  0  0  0
    1.0907    1.4319    1.0572 O   0  0  0  0  0  0  0  0  0  0  0  0
    0.9800    0.6239   -1.3976 O   0  0  0  0  0  0  0  0  0  0  0  0
   -1.0305    2.3380    1.8124 O   0  0  0  0  0  0  0  0  0  0  0  0
   -0.9023    4.6585    1.7463 O   0  0  0  0  0  0  0  0  0  0  0  0
   -2.7543   -1.3978   -0.9595 N   0  0  0  0  0  0  0  0  0  0  0  0
   -5.1796   -1.5765   -0.7663 C   0  0  2  0  0  0  0  0  0  0  0  0
   -6.3310   -1.9216    0.2395 C   0  0  0  0  0  0  0  0  0  0  0  0
   -4.5466   -2.9088   -1.2207 C   0  0  0  0  0  0  0  0  0  0  0  0
   -3.9329   -0.6945   -0.4176 C   0  0  0  0  0  0  0  0  0  0  0  0
   -7.4361   -2.7743   -0.4576 C   0  0  0  0  0  0  0  0  0  0  0  0
   -7.0660   -0.7582    0.9111 C   0  0  0  0  0  0  0  0  0  0  0  0
   -3.1980   -2.5274   -1.8145 C   0  0  1  0  0  0  0  0  0  0  0  0
   -8.1782   -1.9892   -1.5407 C   0  0  0  0  0  0  0  0  0  0  0  0
   -7.8534    0.1064   -0.0679 C   0  0  0  0  0  0  0  0  0  0  0  0
   -8.7620   -0.6797   -1.0175 C   0  0  0  0  0  0  0  0  0  0  0  0
   -1.3881   -1.1663   -0.7469 C   0  0  0  0  0  0  0  0  0  0  0  0
   -3.4530   -2.2292   -3.2940 C   0  0  0  0  0  0  0  0  0  0  0  0
   -0.8646    0.0822    0.0453 C   0  0  0  0  0  0  0  0  0  0  0  0
    2.7954    0.0822    0.0453 C   0  0  0  0  0  0  0  0  0  0  0  0
    3.4143   -1.0808   -0.7350 C   0  0  0  0  0  0  0  0  0  0  0  0
    0.3622    2.1190    2.1144 C   0  0  3  0  0  0  0  0  0  0  0  0
    4.9485   -1.0599   -0.7696 C   0  0  0  0  0  0  0  0  0  0  0  0
    0.6806    1.7561    3.6452 C   0  0  0  0  0  0  0  0  0  0  0  0
    5.6002   -1.1968    0.6128 C   0  0  0  0  0  0  0  0  0  0  0  0
    0.5630    0.3006    4.1098 C   0  0  0  0  0  0  0  0  0  0  0  0
   -0.1230    2.5913    4.6761 C   0  0  0  0  0  0  0  0  0  0  0  0
    7.1107   -1.2262    0.5552 C   0  0  0  0  0  0  0  0  0  0  0  0
   -1.3580    3.5803    1.3380 C   0  0  0  0  0  0  0  0  0  0  0  0
    7.8229   -2.3145    1.0778 C   0  0  0  0  0  0  0  0  0  0  0  0
    7.8281   -0.1531    0.0064 C   0  0  0  0  0  0  0  0  0  0  0  0
   -2.2567    3.4320    0.1049 C   0  0  0  0  0  0  0  0  0  0  0  0
    9.2187   -2.3406    1.0260 C   0  0  0  0  0  0  0  0  0  0  0  0
    9.2225   -0.1829   -0.0498 C   0  0  0  0  0  0  0  0  0  0  0  0
    9.9177   -1.2782    0.4565 C   0  0  0  0  0  0  0  0  0  0  0  0
   -3.7193    3.8019    0.1867 C   0  0  0  0  0  0  0  0  0  0  0  0
  1  5  1  0  0  0  0
  1  6  2  0  0  0  0
  1 22  1  0  0  0  0
  1 23  1  0  0  0  0
  2 21  1  0  0  0  0
  3 20  2  0  0  0  0
  4 21  2  0  0  0  0
  5 25  1  0  0  0  0
  7 25  1  0  0  0  0
  7 32  1  0  0  0  0
  8 32  2  0  0  0  0
  9 13  1  0  0  0  0
  9 16  1  0  0  0  0
  9 20  1  0  0  0  0
 10 12  1  0  0  0  0
 10 13  1  0  0  0  0
 10 11  1  1  0  0  0
 11 14  1  0  0  0  0
 11 15  1  0  0  0  0
 12 16  1  0  0  0  0
 14 17  1  0  0  0  0
 15 18  1  0  0  0  0
 16 21  1  6  0  0  0
 17 19  1  0  0  0  0
 18 19  1  0  0  0  0
 20 22  1  0  0  0  0
 23 24  1  0  0  0  0
 24 26  1  0  0  0  0
 25 27  1  0  0  0  0
 26 28  1  0  0  0  0
 27 29  1  0  0  0  0
 27 30  1  0  0  0  0
 28 31  1  0  0  0  0
 31 33  2  0  0  0  0
 31 34  1  0  0  0  0
 32 35  1  0  0  0  0
 33 36  1  0  0  0  0
 34 37  2  0  0  0  0
 35 39  1  0  0  0  0
 36 38  2  0  0  0  0
 37 38  1  0  0  0  0
M  END
