
 OpenBabel10141417483D

 19 19  0  0  0  0  0  0  0  0999 V2000
    2.8584    3.4536   -0.3254 P   0  0  0  0  0  0  0  0  0  0  0  0
    0.7192    6.3188    1.2861 O   0  0  0  0  0  0  0  0  0  0  0  0
    2.1008    4.3652    0.7461 O   0  0  0  0  0  0  0  0  0  0  0  0
    3.0048    4.2073   -1.7259 O   0  0  0  0  0  0  0  0  0  0  0  0
    1.9213    2.2146   -0.6535 O   0  0  0  0  0  0  0  0  0  0  0  0
    4.2016    2.9325    0.1028 O   0  0  0  0  0  0  0  0  0  0  0  0
    3.5780    6.6993    0.1779 C   0  0  0  0  0  0  0  0  0  0  0  0
   -0.7593    8.7142    2.4545 C   0  0  0  0  0  0  0  0  0  0  0  0
    2.6920    7.7589    0.7777 C   0  0  0  0  0  0  0  0  0  0  0  0
    0.6929    8.6596    1.9032 C   0  0  0  0  0  0  0  0  0  0  0  0
    1.3658    7.5395    1.2792 C   0  0  0  0  0  0  0  0  0  0  0  0
    3.3164    9.0172    0.9193 C   0  0  0  0  0  0  0  0  0  0  0  0
    1.3821    9.9065    1.9437 C   0  0  0  0  0  0  0  0  0  0  0  0
    4.5756    7.1192   -0.9094 C   0  0  0  0  0  0  0  0  0  0  0  0
    4.3119    5.9704    1.3055 C   0  0  0  0  0  0  0  0  0  0  0  0
   -1.2572    7.4976    3.2319 C   0  0  0  0  0  0  0  0  0  0  0  0
   -1.0602    9.9227    3.4025 C   0  0  0  0  0  0  0  0  0  0  0  0
    2.6675   10.0862    1.4832 C   0  0  0  0  0  0  0  0  0  0  0  0
    0.9740    5.1661    0.4147 C   0  0  0  0  0  0  0  0  0  0  0  0
  1  3  1  0  0  0  0
  1  4  1  0  0  0  0
  1  5  1  0  0  0  0
  1  6  2  0  0  0  0
  2 11  1  0  0  0  0
  2 19  1  0  0  0  0
  3 19  1  0  0  0  0
  7  9  1  0  0  0  0
  7 14  1  0  0  0  0
  7 15  1  0  0  0  0
  8 10  1  0  0  0  0
  8 16  1  0  0  0  0
  8 17  1  0  0  0  0
  9 11  2  0  0  0  0
  9 12  1  0  0  0  0
 10 11  1  0  0  0  0
 10 13  2  0  0  0  0
 12 18  2  0  0  0  0
 13 18  1  0  0  0  0
M  END
