
 OpenBabel10141417483D

 41 44  0  0  1  0  0  0  0  0999 V2000
   -1.3128   -1.7063    2.7172 C   0  0  0  0  0  0  0  0  0  0  0  0
   -0.3934   -2.5153    2.0634 C   0  0  0  0  0  0  0  0  0  0  0  0
    0.7531   -2.0160    1.5002 C   0  0  0  0  0  0  0  0  0  0  0  0
    1.0380   -0.6354    1.6018 C   0  0  0  0  0  0  0  0  0  0  0  0
    0.0982    0.1855    2.2041 C   0  0  0  0  0  0  0  0  0  0  0  0
   -1.0955   -0.3021    2.7602 C   0  0  0  0  0  0  0  0  0  0  0  0
   -2.1262    0.6754    3.3063 C   0  0  2  0  0  0  0  0  0  0  0  0
    0.4638    1.6551    2.1884 C   0  0  0  0  0  0  0  0  0  0  0  0
   -0.7401    2.6161    2.0872 C   0  0  2  0  0  0  0  0  0  0  0  0
   -2.1741    1.9337    2.3573 C   0  0  3  0  0  0  0  0  0  0  0  0
   -4.4496   -0.0965    2.3522 C   0  0  0  0  0  0  0  0  0  0  0  0
   -3.5825    0.1703    3.5919 C   0  0  0  0  0  0  0  0  0  0  0  0
   -3.0839    1.6457    1.1246 C   0  0  1  0  0  0  0  0  0  0  0  0
   -4.5120    1.1071    1.3953 C   0  0  1  0  0  0  0  0  0  0  0  0
   -4.9730    0.6713   -0.0320 C   0  0  2  0  0  0  0  0  0  0  0  0
   -2.5227    0.6965    0.0695 C   0  0  0  0  0  0  0  0  0  0  0  0
   -3.7037    0.3392   -0.8245 C   0  0  0  0  0  0  0  0  0  0  0  0
    1.6565   -2.7272    0.8082 O   0  0  0  0  0  0  0  0  0  0  0  0
   -0.5719    3.6564    0.8772 C   0  0  0  0  0  0  0  0  0  0  0  0
   -1.7617    4.6713    0.8159 C   0  0  0  0  0  0  0  0  0  0  0  0
   -1.7570    5.8744   -0.1453 C   0  0  0  0  0  0  0  0  0  0  0  0
   -3.0965    6.6886   -0.3643 C   0  0  0  0  0  0  0  0  0  0  0  0
   -3.1147    7.8832   -1.3980 C   0  0  0  0  0  0  0  0  0  0  0  0
   -2.6743    7.6145   -2.8591 C   0  0  0  0  0  0  0  0  0  0  0  0
   -1.1828    7.3148   -2.8334 C   0  0  0  0  0  0  0  0  0  0  0  0
   -0.4154    6.8009   -4.0139 C   0  0  0  0  0  0  0  0  0  0  0  0
    0.0414    7.7782   -5.0619 C   0  0  0  0  0  0  0  0  0  0  0  0
    0.9826    6.7684   -6.2715 S   0  0  3  0  0  0  0  0  0  0  0  0
    0.0606    5.6835   -6.7488 O   0  0  0  0  0  0  0  0  0  0  0  0
    1.0276    8.0393   -7.5562 C   0  0  0  0  0  0  0  0  0  0  0  0
    1.7024    7.4655   -8.7937 C   0  0  0  0  0  0  0  0  0  0  0  0
    1.6662    8.4354   -9.9704 C   0  0  0  0  0  0  0  0  0  0  0  0
    2.3736    7.8918  -11.2118 C   0  0  0  0  0  0  0  0  0  0  0  0
    1.7589    6.6243  -11.8364 C   0  0  0  0  0  0  0  0  0  0  0  0
    2.3979    8.9021  -12.1350 F   0  0  0  0  0  0  0  0  0  0  0  0
    3.6852    7.6823  -10.8877 F   0  0  0  0  0  0  0  0  0  0  0  0
    0.6510    6.1960  -11.1875 F   0  0  0  0  0  0  0  0  0  0  0  0
    1.3886    6.8309  -13.1253 F   0  0  0  0  0  0  0  0  0  0  0  0
    2.6386    5.5925  -11.8474 F   0  0  0  0  0  0  0  0  0  0  0  0
   -5.6443    1.7316   -0.7158 O   0  0  0  0  0  0  0  0  0  0  0  0
   -5.4587    2.1967    1.9557 C   0  0  0  0  0  0  0  0  0  0  0  0
  1  2  1  0  0  0  0
  1  6  2  0  0  0  0
  2  3  2  0  0  0  0
  3  4  1  0  0  0  0
  3 18  1  0  0  0  0
  4  5  2  0  0  0  0
  5  8  1  0  0  0  0
  6  5  1  0  0  0  0
  7  6  1  1  0  0  0
  7 12  1  0  0  0  0
  7 10  1  0  0  0  0
  8  9  1  0  0  0  0
  9 10  1  0  0  0  0
  9 19  1  6  0  0  0
 10 13  1  0  0  0  0
 11 12  1  0  0  0  0
 11 14  1  0  0  0  0
 13 16  1  1  0  0  0
 14 13  1  0  0  0  0
 14 41  1  1  0  0  0
 15 14  1  0  0  0  0
 15 17  1  0  0  0  0
 15 40  1  6  0  0  0
 16 17  1  0  0  0  0
 19 20  1  0  0  0  0
 20 21  1  0  0  0  0
 21 22  1  0  0  0  0
 22 23  1  0  0  0  0
 23 24  1  0  0  0  0
 24 25  1  0  0  0  0
 25 26  1  0  0  0  0
 26 27  1  0  0  0  0
 27 28  1  0  0  0  0
 28 29  2  0  0  0  0
 28 30  1  0  0  0  0
 30 31  1  0  0  0  0
 31 32  1  0  0  0  0
 32 33  1  0  0  0  0
 33 34  1  0  0  0  0
 33 35  1  0  0  0  0
 33 36  1  0  0  0  0
 34 37  1  0  0  0  0
 34 38  1  0  0  0  0
 34 39  1  0  0  0  0
M  END
