614
 OpenBabel10141417533D

 16 17  0  0  0  0  0  0  0  0999 V2000
    3.4257   -0.2032   -0.8964 O   0  0  0  0  0  0  0  0  0  0  0  0
    0.7551    5.5361   -2.2200 O   0  0  0  0  0  0  0  0  0  0  0  0
    3.1847    1.5424   -2.3378 O   0  0  0  0  0  0  0  0  0  0  0  0
   -1.0448    8.4068   -2.9961 O   0  5  0  0  0  0  0  0  0  0  0  0
    0.9540    7.7287   -3.6337 O   0  0  0  0  0  0  0  0  0  0  0  0
    1.9201    1.3909   -0.3582 N   0  0  0  0  0  0  0  0  0  0  0  0
    1.0069    2.4088   -0.4743 N   0  0  0  0  0  0  0  0  0  0  0  0
   -0.1066    7.5985   -3.0099 N   0  3  0  0  0  0  0  0  0  0  0  0
    1.6662    0.3139    0.5429 C   0  0  0  0  0  0  0  0  0  0  0  0
    2.9187   -0.5137    0.4051 C   0  0  0  0  0  0  0  0  0  0  0  0
    2.8687    0.9861   -1.2943 C   0  0  0  0  0  0  0  0  0  0  0  0
    0.3754    4.4964   -1.4131 C   0  0  0  0  0  0  0  0  0  0  0  0
    1.3099    3.4178   -1.2300 C   0  0  0  0  0  0  0  0  0  0  0  0
   -0.8967    4.7312   -0.9178 C   0  0  0  0  0  0  0  0  0  0  0  0
   -0.2804    6.4162   -2.2264 C   0  0  0  0  0  0  0  0  0  0  0  0
   -1.3221    5.9792   -1.4438 C   0  0  0  0  0  0  0  0  0  0  0  0
  1 10  1  0  0  0  0
  1 11  1  0  0  0  0
  2 12  1  0  0  0  0
  2 15  1  0  0  0  0
  3 11  2  0  0  0  0
  4  8  1  0  0  0  0
  5  8  2  0  0  0  0
  6  7  1  0  0  0  0
  6  9  1  0  0  0  0
  6 11  1  0  0  0  0
  7 13  2  3  0  0  0
  8 15  1  0  0  0  0
  9 10  1  0  0  0  0
 12 13  1  0  0  0  0
 12 14  2  0  0  0  0
 14 16  1  0  0  0  0
 15 16  2  0  0  0  0
M  CHG  2   4  -1   8   1
M  END
