
 OpenBabel10141418003D

 26 27  0  0  0  0  0  0  0  0999 V2000
    5.0293   -0.7778   -0.6777 C   0  0  0  0  0  0  0  0  0  0  0  0
   -0.5128   -5.9895    3.7542 C   0  0  0  0  0  0  0  0  0  0  0  0
    4.8744   -2.7182   -6.9167 C   0  0  0  0  0  0  0  0  0  0  0  0
    4.1046   -1.7766   -7.8074 C   0  0  0  0  0  0  0  0  0  0  0  0
    2.0314   -2.4293   -2.6351 C   0  0  0  0  0  0  0  0  0  0  0  0
    2.2587   -3.8758   -3.0652 C   0  0  0  0  0  0  0  0  0  0  0  0
    6.1145   -1.9185   -6.5919 C   0  0  0  0  0  0  0  0  0  0  0  0
    1.4648   -5.0286    0.7934 C   0  0  0  0  0  0  0  0  0  0  0  0
    3.5024   -3.6106    0.3325 C   0  0  0  0  0  0  0  0  0  0  0  0
    3.4197    0.3676   -6.5701 C   0  0  0  0  0  0  0  0  0  0  0  0
    2.0541   -1.5097    0.5357 C   0  0  0  0  0  0  0  0  0  0  0  0
    3.8162   -1.5902   -1.0888 C   0  0  0  0  0  0  0  0  0  0  0  0
    0.5823   -5.4840    2.8529 C   0  0  0  0  0  0  0  0  0  0  0  0
    2.5348   -4.3258    1.2292 C   0  0  0  0  0  0  0  0  0  0  0  0
    4.5229   -0.3955   -7.3127 C   0  0  3  0  0  0  0  0  0  0  0  0
    3.3035   -1.6411   -2.3562 C   0  0  0  0  0  0  0  0  0  0  0  0
    2.6936   -4.3428    2.7157 C   0  0  0  0  0  0  0  0  0  0  0  0
    3.7171   -3.9062    3.3728 N   0  0  0  0  0  0  0  0  0  0  0  0
    0.4632   -5.6009    1.5591 N   0  0  0  0  0  0  0  0  0  0  0  0
    1.6641   -4.8789    3.4272 N   0  0  0  0  0  0  0  0  0  0  0  0
    3.1362   -2.2128   -0.0182 N   0  0  0  0  0  0  0  0  0  0  0  0
    1.0066   -4.5292   -3.2570 O   0  0  0  0  0  0  0  0  0  0  0  0
    1.7366   -0.3665    0.2951 O   0  0  0  0  0  0  0  0  0  0  0  0
    5.6894   -0.5563   -6.4898 O   0  0  0  0  0  0  0  0  0  0  0  0
    2.6331   -0.4630   -5.1095 S   0  0  0  0  0  0  0  0  0  0  0  0
    4.1136   -0.7888   -3.6924 S   0  0  0  0  0  0  0  0  0  0  0  0
  4  3  1  0  0  0  0
  6  5  1  0  0  0  0
  7  3  1  0  0  0  0
 12  1  1  0  0  0  0
 13  2  1  0  0  0  0
 14  8  2  0  0  0  0
 14  9  1  0  0  0  0
 15  4  1  0  0  0  0
 15 10  1  0  0  0  0
 16  5  1  0  0  0  0
 16 12  2  0  0  0  0
 17 14  1  0  0  0  0
 18 17  2  0  0  0  0
 19  8  1  0  0  0  0
 19 13  2  0  0  0  0
 20 13  1  0  0  0  0
 20 17  1  0  0  0  0
 21  9  1  0  0  0  0
 21 11  1  0  0  0  0
 21 12  1  0  0  0  0
 22  6  1  0  0  0  0
 23 11  2  0  0  0  0
 24  7  1  0  0  0  0
 24 15  1  0  0  0  0
 25 10  1  0  0  0  0
 26 16  1  0  0  0  0
 26 25  1  0  0  0  0
M  END
