2703
 OpenBabel10141417523D

 37 40  0  0  1  0  0  0  0  0999 V2000
    0.7725    0.9781   -3.0661 O   0  0  0  0  0  0  0  0  0  0  0  0
    4.6170    5.7290   -1.5256 O   0  0  0  0  0  0  0  0  0  0  0  0
    5.0434   -1.9034   -7.0133 O   0  0  0  0  0  0  0  0  0  0  0  0
    3.6267    6.2420    1.0778 O   0  0  0  0  0  0  0  0  0  0  0  0
    4.3145    4.7871    2.6353 O   0  0  0  0  0  0  0  0  0  0  0  0
    4.0107    7.8903   -2.0699 O   0  0  0  0  0  0  0  0  0  0  0  0
    3.2774    2.8734   -4.0632 C   0  0  1  0  0  0  0  0  0  0  0  0
    3.0792    1.2891   -3.9476 C   0  0  2  0  0  0  0  0  0  0  0  0
    2.2755    3.7356   -3.1175 C   0  0  2  0  0  0  0  0  0  0  0  0
    2.8906    0.4742   -5.2972 C   0  0  2  0  0  0  0  0  0  0  0  0
    3.9516    0.9371   -6.3627 C   0  0  1  0  0  0  0  0  0  0  0  0
    2.1483    3.1766   -1.6524 C   0  0  1  0  0  0  0  0  0  0  0  0
    3.1745    3.3119   -5.5517 C   0  0  0  0  0  0  0  0  0  0  0  0
    2.1563    0.8680   -2.7866 C   0  0  1  0  0  0  0  0  0  0  0  0
    3.9900    2.4757   -6.5414 C   0  0  0  0  0  0  0  0  0  0  0  0
    2.4619    1.6811   -1.5413 C   0  0  0  0  0  0  0  0  0  0  0  0
    2.7048    5.2134   -2.9090 C   0  0  0  0  0  0  0  0  0  0  0  0
    3.0515   -1.0643   -5.0549 C   0  0  0  0  0  0  0  0  0  0  0  0
    5.3976    0.3598   -6.1423 C   0  0  1  0  0  0  0  0  0  0  0  0
    4.7511    3.1589   -3.6171 C   0  0  0  0  0  0  0  0  0  0  0  0
    2.9125    4.1204   -0.6964 C   0  0  0  0  0  0  0  0  0  0  0  0
    3.2138    5.4073   -1.4752 C   0  0  1  0  0  0  0  0  0  0  0  0
    0.8602    3.8666   -3.7613 C   0  0  0  0  0  0  0  0  0  0  0  0
    1.4621    0.6116   -5.8917 C   0  0  0  0  0  0  0  0  0  0  0  0
    4.4701   -1.5141   -4.7280 C   0  0  0  0  0  0  0  0  0  0  0  0
    5.4180   -1.1537   -5.8593 C   0  0  1  0  0  0  0  0  0  0  0  0
    6.3308    0.6631   -7.3298 C   0  0  0  0  0  0  0  0  0  0  0  0
    3.1477    3.9403    0.6535 C   0  0  0  0  0  0  0  0  0  0  0  0
    2.8804    2.6693    1.4930 C   0  0  0  0  0  0  0  0  0  0  0  0
    3.7894    4.9868    1.5326 C   0  0  0  0  0  0  0  0  0  0  0  0
    4.8635    7.0270   -1.8830 C   0  0  0  0  0  0  0  0  0  0  0  0
    1.8477    2.7921    2.6383 C   0  0  0  0  0  0  0  0  0  0  0  0
    6.3246    7.2660   -2.1308 C   0  0  0  0  0  0  0  0  0  0  0  0
    1.6215    1.5215    3.4431 C   0  0  0  0  0  0  0  0  0  0  0  0
    0.7066    0.5484    3.2421 C   0  0  0  0  0  0  0  0  0  0  0  0
   -0.1876    0.4345    2.0395 C   0  0  0  0  0  0  0  0  0  0  0  0
    0.4647   -0.5233    4.2810 C   0  0  0  0  0  0  0  0  0  0  0  0
  2 31  1  0  0  0  0
  4 30  1  0  0  0  0
  5 30  2  0  0  0  0
  6 31  2  0  0  0  0
  7  9  1  0  0  0  0
  7 13  1  0  0  0  0
  7 20  1  6  0  0  0
  8  7  1  6  0  0  0
  8 10  1  0  0  0  0
  8 14  1  0  0  0  0
  9 12  1  0  0  0  0
  9 17  1  0  0  0  0
  9 23  1  1  0  0  0
 10 11  1  0  0  0  0
 10 18  1  0  0  0  0
 10 24  1  1  0  0  0
 11 15  1  1  0  0  0
 11 19  1  0  0  0  0
 12 16  1  6  0  0  0
 12 21  1  0  0  0  0
 13 15  1  0  0  0  0
 14  1  1  6  0  0  0
 14 16  1  0  0  0  0
 17 22  1  0  0  0  0
 18 25  1  0  0  0  0
 19 26  1  0  0  0  0
 19 27  1  6  0  0  0
 21 22  1  0  0  0  0
 21 28  2  0  0  0  0
 22  2  1  6  0  0  0
 25 26  1  0  0  0  0
 26  3  1  6  0  0  0
 28 29  1  0  0  0  0
 28 30  1  0  0  0  0
 29 32  1  0  0  0  0
 31 33  1  0  0  0  0
 32 34  1  0  0  0  0
 34 35  2  0  0  0  0
 35 36  1  0  0  0  0
 35 37  1  0  0  0  0
M  END
