996
 OpenBabel10141418183D

 12 12  0  0  0  0  0  0  0  0999 V2000
    2.1692   -2.2990   -0.1671 O   0  0  0  0  0  0  0  0  0  0  0  0
    1.9085   -0.3632    0.9129 O   0  0  0  0  0  0  0  0  0  0  0  0
    4.6491    1.7794    0.4653 N   0  0  0  0  0  0  0  0  0  0  0  0
    4.7404   -0.3834   -0.8580 C   0  0  0  0  0  0  0  0  0  0  0  0
    5.4620    0.3056   -2.0534 C   0  0  0  0  0  0  0  0  0  0  0  0
    5.3121   -1.8199   -0.7030 C   0  0  0  0  0  0  0  0  0  0  0  0
    5.4493   -0.5199   -3.3427 C   0  0  0  0  0  0  0  0  0  0  0  0
    5.2808   -2.6418   -1.9891 C   0  0  0  0  0  0  0  0  0  0  0  0
    6.0008   -1.9232   -3.1234 C   0  0  0  0  0  0  0  0  0  0  0  0
    3.2137   -0.3957   -1.1388 C   0  0  0  0  0  0  0  0  0  0  0  0
    5.0695    0.3820    0.4597 C   0  0  0  0  0  0  0  0  0  0  0  0
    2.3740   -0.9739   -0.0314 C   0  0  0  0  0  0  0  0  0  0  0  0
  1 12  1  0  0  0  0
  2 12  2  0  0  0  0
  3 11  1  0  0  0  0
  4  5  1  0  0  0  0
  4  6  1  0  0  0  0
  4 10  1  0  0  0  0
  4 11  1  0  0  0  0
  5  7  1  0  0  0  0
  6  8  1  0  0  0  0
  7  9  1  0  0  0  0
  8  9  1  0  0  0  0
 10 12  1  0  0  0  0
M  END
