
 OpenBabel10141418013D

 13  9  0  0  0  0  0  0  0  0999 V2000
    0.4519   -0.3987    2.7623 Ga  0  1  0  0  0 15  0  0  0  0  0  0
    0.0164   -2.2945   -1.1779 O   0  5  0  0  0  0  0  0  0  0  0  0
    1.8157   -2.7908    0.1242 O   0  5  0  0  0  0  0  0  0  0  0  0
    1.0979    0.4844   -0.5281 O   0  5  0  0  0  0  0  0  0  0  0  0
    3.1267   -0.2513    0.2027 O   0  5  0  0  0  0  0  0  0  0  0  0
    2.7920    1.9657   -2.3955 O   0  5  0  0  0  0  0  0  0  0  0  0
    4.0748    3.0136   -0.8357 O   0  5  0  0  0  0  0  0  0  0  0  0
    2.0475   -2.0109   -1.8886 O   0  0  0  0  0  0  0  0  0  0  0  0
    2.2991    1.6461    0.8589 O   0  0  0  0  0  0  0  0  0  0  0  0
    4.6979    1.1487   -1.7543 O   0  0  0  0  0  0  0  0  0  0  0  0
    1.3207   -2.3880   -1.0273 N   0  3  0  0  0  0  0  0  0  0  0  0
    2.1823    0.6608    0.1909 N   0  3  0  0  0  0  0  0  0  0  0  0
    3.9078    2.0395   -1.7032 N   0  3  0  0  0  0  0  0  0  0  0  0
  2 11  1  0  0  0  0
  3 11  1  0  0  0  0
  4 12  1  0  0  0  0
  5 12  1  0  0  0  0
  6 13  1  0  0  0  0
  7 13  1  0  0  0  0
  8 11  2  0  0  0  0
  9 12  2  0  0  0  0
 10 13  2  0  0  0  0
M  CHG  8   1   3   2  -1   3  -1   4  -1   5  -1   6  -1   7  -1  11   1
M  CHG  2  12   1  13   1
M  END
