3468
 OpenBabel10141417543D

 28 30  0  0  0  0  0  0  0  0999 V2000
    0.1427    0.5630    0.2033 N   0  0  0  0  0  0  0  0  0  0  0  0
    0.5214   -8.1109   -4.9419 N   0  0  0  0  0  0  0  0  0  0  0  0
   -2.1623   -0.1002   -9.0833 N   0  3  0  0  0  0  0  0  0  0  0  0
   -1.2211   -2.6458   -4.4080 C   0  0  0  0  0  0  0  0  0  0  0  0
   -0.8598   -1.8412   -3.1975 C   0  0  0  0  0  0  0  0  0  0  0  0
   -0.7712   -4.0721   -4.4980 C   0  0  0  0  0  0  0  0  0  0  0  0
   -1.8518   -2.0654   -5.4751 C   0  0  0  0  0  0  0  0  0  0  0  0
    0.3853   -1.2160   -3.0944 C   0  0  0  0  0  0  0  0  0  0  0  0
   -1.6205   -5.1249   -4.1472 C   0  0  0  0  0  0  0  0  0  0  0  0
   -1.7502   -1.6904   -2.1341 C   0  0  0  0  0  0  0  0  0  0  0  0
    0.5117   -4.3859   -4.9621 C   0  0  0  0  0  0  0  0  0  0  0  0
   -2.2214   -2.8244   -6.6767 C   0  0  0  0  0  0  0  0  0  0  0  0
   -2.2635   -0.6561   -5.4832 C   0  0  0  0  0  0  0  0  0  0  0  0
   -0.1627   -0.2669   -0.8834 C   0  0  0  0  0  0  0  0  0  0  0  0
    0.0813   -6.7925   -4.7484 C   0  0  0  0  0  0  0  0  0  0  0  0
   -2.3399   -0.7208   -7.9453 C   0  0  0  0  0  0  0  0  0  0  0  0
    0.7176   -0.4410   -1.9648 C   0  0  0  0  0  0  0  0  0  0  0  0
   -1.1991   -6.4610   -4.2797 C   0  0  0  0  0  0  0  0  0  0  0  0
   -1.4002   -0.9248   -1.0047 C   0  0  0  0  0  0  0  0  0  0  0  0
    0.9309   -5.7236   -5.0710 C   0  0  0  0  0  0  0  0  0  0  0  0
   -2.4646   -2.2126   -7.8452 C   0  0  0  0  0  0  0  0  0  0  0  0
   -2.4829   -0.0030   -6.6372 C   0  0  0  0  0  0  0  0  0  0  0  0
   -0.4823   -9.1205   -5.2753 C   0  0  0  0  0  0  0  0  0  0  0  0
    1.5516   -8.5617   -3.9991 C   0  0  0  0  0  0  0  0  0  0  0  0
    1.5440    0.7421    0.5932 C   0  0  0  0  0  0  0  0  0  0  0  0
   -0.8095    0.6623    1.3126 C   0  0  0  0  0  0  0  0  0  0  0  0
   -2.0582    1.3914   -9.1690 C   0  0  0  0  0  0  0  0  0  0  0  0
   -1.9994   -0.8063  -10.3946 C   0  0  0  0  0  0  0  0  0  0  0  0
  1 14  1  0  0  0  0
  1 25  1  0  0  0  0
  1 26  1  0  0  0  0
  2 15  1  0  0  0  0
  2 23  1  0  0  0  0
  2 24  1  0  0  0  0
  3 16  2  0  0  0  0
  3 27  1  0  0  0  0
  3 28  1  0  0  0  0
  4  5  1  0  0  0  0
  4  6  1  0  0  0  0
  4  7  2  0  0  0  0
  5  8  2  0  0  0  0
  5 10  1  0  0  0  0
  6  9  2  0  0  0  0
  6 11  1  0  0  0  0
  7 12  1  0  0  0  0
  7 13  1  0  0  0  0
  8 17  1  0  0  0  0
  9 18  1  0  0  0  0
 10 19  2  0  0  0  0
 11 20  2  0  0  0  0
 12 21  2  0  0  0  0
 13 22  2  0  0  0  0
 14 17  2  0  0  0  0
 14 19  1  0  0  0  0
 15 18  2  0  0  0  0
 15 20  1  0  0  0  0
 16 21  1  0  0  0  0
 16 22  1  0  0  0  0
M  CHG  1   3   1
M  END
