
 OpenBabel10141417533D

 22 24  0  0  0  0  0  0  0  0999 V2000
    6.4940   -4.6764   -0.3372 S   0  0  0  0  0  0  0  0  0  0  0  0
    5.1826   -2.7947   -2.4116 O   0  0  0  0  0  0  0  0  0  0  0  0
    7.2377   -4.6457   -1.5719 O   0  0  0  0  0  0  0  0  0  0  0  0
    6.4014   -5.8997    0.4402 O   0  0  0  0  0  0  0  0  0  0  0  0
    2.3106   -3.8108   -0.5906 N   0  0  0  0  0  0  0  0  0  0  0  0
    3.1107   -3.1843   -1.5702 N   0  0  0  0  0  0  0  0  0  0  0  0
    4.9479   -4.1619   -0.5603 N   0  0  0  0  0  0  0  0  0  0  0  0
    0.0898   -3.8681   -1.4731 C   0  0  2  0  0  0  0  0  0  0  0  0
    0.2312   -2.6304   -0.5797 C   0  0  1  0  0  0  0  0  0  0  0  0
   -1.2383   -4.5187   -1.0935 C   0  0  0  0  0  0  0  0  0  0  0  0
   -1.0349   -2.5770    0.2746 C   0  0  0  0  0  0  0  0  0  0  0  0
    1.3185   -4.7206   -1.1914 C   0  0  0  0  0  0  0  0  0  0  0  0
    1.5311   -2.8319    0.1879 C   0  0  0  0  0  0  0  0  0  0  0  0
   -2.0579   -3.3667   -0.5322 C   0  0  0  0  0  0  0  0  0  0  0  0
    4.4813   -3.3458   -1.5831 C   0  0  0  0  0  0  0  0  0  0  0  0
    7.1461   -3.4209    0.7405 C   0  0  0  0  0  0  0  0  0  0  0  0
    7.7732   -2.3017    0.1899 C   0  0  0  0  0  0  0  0  0  0  0  0
    7.1114   -3.6067    2.1261 C   0  0  0  0  0  0  0  0  0  0  0  0
    8.3828   -1.5591    2.4232 C   0  0  0  0  0  0  0  0  0  0  0  0
    8.3812   -1.3692    1.0340 C   0  0  0  0  0  0  0  0  0  0  0  0
    7.7235   -2.6715    2.9638 C   0  0  0  0  0  0  0  0  0  0  0  0
    9.0590   -0.5702    3.3282 C   0  0  0  0  0  0  0  0  0  0  0  0
  1  3  2  0  0  0  0
  1  4  2  0  0  0  0
  1  7  1  0  0  0  0
  1 16  1  0  0  0  0
  2 15  2  0  0  0  0
  5 12  1  0  0  0  0
  5 13  1  0  0  0  0
  5  6  1  0  0  0  0
  6 15  1  0  0  0  0
  7 15  1  0  0  0  0
  8  9  1  0  0  0  0
  8 10  1  1  0  0  0
  8 12  1  0  0  0  0
  9 11  1  1  0  0  0
  9 13  1  0  0  0  0
 10 14  1  0  0  0  0
 11 14  1  0  0  0  0
 16 17  2  0  0  0  0
 16 18  1  0  0  0  0
 17 20  1  0  0  0  0
 18 21  2  0  0  0  0
 19 20  2  0  0  0  0
 19 21  1  0  0  0  0
 19 22  1  0  0  0  0
M  END
