222
 OpenBabel10141417523D

 34 36  0  0  0  0  0  0  0  0999 V2000
    1.3593   -1.2483    2.2832 S   0  0  0  0  0  0  0  0  0  0  0  0
   -0.0880   -0.7533   -1.2342 O   0  0  0  0  0  0  0  0  0  0  0  0
    1.2100   -2.4714    3.0311 O   0  0  0  0  0  0  0  0  0  0  0  0
    0.9279    0.0336    2.8048 O   0  0  0  0  0  0  0  0  0  0  0  0
   10.3869   -0.4143   -3.0679 O   0  0  0  0  0  0  0  0  0  0  0  0
    8.4322    2.5785   -0.8608 O   0  0  0  0  0  0  0  0  0  0  0  0
    1.0100    0.7383    0.1046 N   0  0  0  0  0  0  0  0  0  0  0  0
    0.6085   -1.4357    0.8135 N   0  0  0  0  0  0  0  0  0  0  0  0
   10.1533    1.7106   -2.1030 N   0  0  0  0  0  0  0  0  0  0  0  0
    8.2397    0.4625   -1.6957 N   0  0  0  0  0  0  0  0  0  0  0  0
    0.8289    4.2046    1.2070 C   0  0  3  0  0  0  0  0  0  0  0  0
    1.0146    1.9078   -0.7412 C   0  0  3  0  0  0  0  0  0  0  0  0
    2.1394    3.4447    0.9678 C   0  0  0  0  0  0  0  0  0  0  0  0
   -0.4043    3.3934    0.7800 C   0  0  0  0  0  0  0  0  0  0  0  0
    2.2345    2.7752   -0.4074 C   0  0  0  0  0  0  0  0  0  0  0  0
   -0.2740    2.7189   -0.5886 C   0  0  0  0  0  0  0  0  0  0  0  0
    0.8609    5.5845    0.5487 C   0  0  0  0  0  0  0  0  0  0  0  0
    0.4682   -0.4770   -0.1908 C   0  0  0  0  0  0  0  0  0  0  0  0
   10.9669    2.8931   -2.0188 C   0  0  0  0  0  0  0  0  0  0  0  0
   12.1902    2.4880   -2.7768 C   0  0  0  0  0  0  0  0  0  0  0  0
   12.1106    1.2321   -3.2412 C   0  0  0  0  0  0  0  0  0  0  0  0
    3.0713   -1.0826    1.8249 C   0  0  0  0  0  0  0  0  0  0  0  0
   10.7953    0.7088   -2.8207 C   0  0  0  0  0  0  0  0  0  0  0  0
   13.0470    0.4238   -4.0648 C   0  0  0  0  0  0  0  0  0  0  0  0
    7.0236   -0.4411    0.2473 C   0  0  0  0  0  0  0  0  0  0  0  0
    5.6621   -0.6986    0.8469 C   0  0  0  0  0  0  0  0  0  0  0  0
    8.9081    1.6461   -1.5052 C   0  0  0  0  0  0  0  0  0  0  0  0
    6.9294    0.1939   -1.1421 C   0  0  0  0  0  0  0  0  0  0  0  0
    3.7562    0.1016    2.1146 C   0  0  0  0  0  0  0  0  0  0  0  0
    3.6921   -2.1038    1.1053 C   0  0  0  0  0  0  0  0  0  0  0  0
   13.3212    3.4458   -2.9159 C   0  0  0  0  0  0  0  0  0  0  0  0
    5.0416    0.2982    1.6110 C   0  0  0  0  0  0  0  0  0  0  0  0
    4.9892   -1.9103    0.6226 C   0  0  0  0  0  0  0  0  0  0  0  0
   14.0182   -0.3669   -3.2033 C   0  0  0  0  0  0  0  0  0  0  0  0
  1  3  2  0  0  0  0
  1  4  2  0  0  0  0
  1  8  1  0  0  0  0
  1 22  1  0  0  0  0
  2 18  2  0  0  0  0
  5 23  2  0  0  0  0
  6 27  2  0  0  0  0
  7 12  1  0  0  0  0
  7 18  1  0  0  0  0
  8 18  1  0  0  0  0
  9 19  1  0  0  0  0
  9 23  1  0  0  0  0
  9 27  1  0  0  0  0
 10 27  1  0  0  0  0
 10 28  1  0  0  0  0
 11 13  1  0  0  0  0
 11 14  1  0  0  0  0
 11 17  1  0  0  0  0
 12 15  1  0  0  0  0
 12 16  1  0  0  0  0
 13 15  1  0  0  0  0
 14 16  1  0  0  0  0
 19 20  1  0  0  0  0
 20 21  2  0  0  0  0
 20 31  1  0  0  0  0
 21 23  1  0  0  0  0
 21 24  1  0  0  0  0
 22 29  2  0  0  0  0
 22 30  1  0  0  0  0
 24 34  1  0  0  0  0
 25 26  1  0  0  0  0
 25 28  1  0  0  0  0
 26 32  2  0  0  0  0
 26 33  1  0  0  0  0
 29 32  1  0  0  0  0
 30 33  2  0  0  0  0
M  END
