143
 OpenBabel10141417473D

 20 19  0  0  1  0  0  0  0  0999 V2000
   -4.4139   -4.6593    6.5654 S   0  0  0  0  0  0  0  0  0  0  0  0
   -1.7766   -2.6108    3.5408 O   0  0  0  0  0  0  0  0  0  0  0  0
   -2.1577   -1.4837    8.1527 O   0  0  0  0  0  0  0  0  0  0  0  0
   -0.7733   -7.7562    3.1682 O   0  0  0  0  0  0  0  0  0  0  0  0
    1.2039   -7.3867    2.1305 O   0  0  0  0  0  0  0  0  0  0  0  0
   -6.3161   -1.0513   11.0916 O   0  0  0  0  0  0  0  0  0  0  0  0
   -7.0178   -1.5704    9.0316 O   0  0  0  0  0  0  0  0  0  0  0  0
   -1.7770   -2.8542    5.8009 N   0  0  0  0  0  0  0  0  0  0  0  0
   -1.5576   -5.2914    2.6853 N   0  0  0  0  0  0  0  0  0  0  0  0
   -4.4285   -1.6202    8.0365 N   0  0  0  0  0  0  0  0  0  0  0  0
    0.3812   -4.9661    4.2583 C   0  0  0  0  0  0  0  0  0  0  0  0
    0.2449   -3.4575    4.5231 C   0  0  0  0  0  0  0  0  0  0  0  0
   -3.0928   -2.2205    6.0234 C   0  0  1  0  0  0  0  0  0  0  0  0
   -0.0983   -5.4557    2.8728 C   0  0  1  0  0  0  0  0  0  0  0  0
   -1.1827   -2.9255    4.5713 C   0  0  0  0  0  0  0  0  0  0  0  0
   -4.2703   -3.1166    5.6012 C   0  0  0  0  0  0  0  0  0  0  0  0
   -3.1675   -1.7591    7.5031 C   0  0  0  0  0  0  0  0  0  0  0  0
    0.2181   -6.9571    2.6761 C   0  0  0  0  0  0  0  0  0  0  0  0
   -4.6149   -1.3419    9.4471 C   0  0  0  0  0  0  0  0  0  0  0  0
   -6.0924   -1.3377    9.7945 C   0  0  0  0  0  0  0  0  0  0  0  0
  1 16  1  0  0  0  0
  2 15  2  0  0  0  0
  3 17  2  0  0  0  0
  4 18  1  0  0  0  0
  5 18  2  0  0  0  0
  6 20  1  0  0  0  0
  7 20  2  0  0  0  0
  8 15  1  0  0  0  0
 10 17  1  0  0  0  0
 10 19  1  0  0  0  0
 11 12  1  0  0  0  0
 12 15  1  0  0  0  0
 13 17  1  1  0  0  0
 13 16  1  0  0  0  0
 13  8  1  0  0  0  0
 14 18  1  1  0  0  0
 14 11  1  0  0  0  0
 14  9  1  0  0  0  0
 19 20  1  0  0  0  0
M  END
