1016
 OpenBabel10141417493D

 33 35  0  0  0  0  0  0  0  0999 V2000
   -0.5540   -1.7556    0.1416 Cl  0  0  0  0  0  0  0  0  0  0  0  0
    8.6806  -10.5878   -0.6978 S   0  0  0  0  0  0  0  0  0  0  0  0
    9.6297  -11.2291    2.1439 O   0  0  0  0  0  0  0  0  0  0  0  0
    7.9953  -11.7284   -0.1411 O   0  0  0  0  0  0  0  0  0  0  0  0
    9.0196  -10.5403   -2.1083 O   0  0  0  0  0  0  0  0  0  0  0  0
    4.7135   -2.8987    3.0165 O   0  0  0  0  0  0  0  0  0  0  0  0
    4.2510    0.2226    2.9180 O   0  0  0  0  0  0  0  0  0  0  0  0
   11.6774  -10.3068    1.7375 N   0  0  0  0  0  0  0  0  0  0  0  0
   10.1011  -10.2728    0.1043 N   0  0  0  0  0  0  0  0  0  0  0  0
    4.3412   -3.6227    0.8832 N   0  0  0  0  0  0  0  0  0  0  0  0
   12.2408  -10.5736    3.0561 C   0  0  0  0  0  0  0  0  0  0  0  0
   11.9495   -9.4244    4.0304 C   0  0  0  0  0  0  0  0  0  0  0  0
   13.7472  -10.8427    2.9408 C   0  0  0  0  0  0  0  0  0  0  0  0
   12.7545   -8.1663    3.7069 C   0  0  0  0  0  0  0  0  0  0  0  0
   14.5674   -9.5827    2.6618 C   0  0  0  0  0  0  0  0  0  0  0  0
   14.2500   -8.4588    3.6427 C   0  0  0  0  0  0  0  0  0  0  0  0
   10.3986  -10.6635    1.4019 C   0  0  0  0  0  0  0  0  0  0  0  0
    7.7350   -9.1203   -0.3628 C   0  0  0  0  0  0  0  0  0  0  0  0
    6.1064   -6.8515   -0.1740 C   0  0  0  0  0  0  0  0  0  0  0  0
    5.1688   -5.6687   -0.2165 C   0  0  0  0  0  0  0  0  0  0  0  0
    6.5212   -9.2006    0.3195 C   0  0  0  0  0  0  0  0  0  0  0  0
    8.1708   -7.9036   -0.8984 C   0  0  0  0  0  0  0  0  0  0  0  0
    5.7099   -8.0642    0.4132 C   0  0  0  0  0  0  0  0  0  0  0  0
    7.3631   -6.7709   -0.7901 C   0  0  0  0  0  0  0  0  0  0  0  0
    5.2685   -4.7409    0.9910 C   0  0  0  0  0  0  0  0  0  0  0  0
    4.1415   -2.7567    1.9444 C   0  0  0  0  0  0  0  0  0  0  0  0
    3.1267   -1.6790    1.7364 C   0  0  0  0  0  0  0  0  0  0  0  0
    3.2043   -0.3781    2.2684 C   0  0  0  0  0  0  0  0  0  0  0  0
    1.9474   -2.0782    1.0764 C   0  0  0  0  0  0  0  0  0  0  0  0
    2.0700    0.4588    2.1810 C   0  0  0  0  0  0  0  0  0  0  0  0
    0.8597   -1.2186    0.9603 C   0  0  0  0  0  0  0  0  0  0  0  0
    0.9053    0.0457    1.5263 C   0  0  0  0  0  0  0  0  0  0  0  0
    5.5707   -0.1384    2.5246 C   0  0  0  0  0  0  0  0  0  0  0  0
  1 31  1  0  0  0  0
  2  4  2  0  0  0  0
  2  5  2  0  0  0  0
  2  9  1  0  0  0  0
  2 18  1  0  0  0  0
  3 17  2  0  0  0  0
  6 26  2  0  0  0  0
  7 28  1  0  0  0  0
  7 33  1  0  0  0  0
  8 11  1  0  0  0  0
  8 17  1  0  0  0  0
  9 17  1  0  0  0  0
 10 25  1  0  0  0  0
 10 26  1  0  0  0  0
 11 12  1  0  0  0  0
 11 13  1  0  0  0  0
 12 14  1  0  0  0  0
 13 15  1  0  0  0  0
 14 16  1  0  0  0  0
 15 16  1  0  0  0  0
 18 21  2  0  0  0  0
 18 22  1  0  0  0  0
 19 20  1  0  0  0  0
 19 23  2  0  0  0  0
 19 24  1  0  0  0  0
 20 25  1  0  0  0  0
 21 23  1  0  0  0  0
 22 24  2  0  0  0  0
 26 27  1  0  0  0  0
 27 28  2  0  0  0  0
 27 29  1  0  0  0  0
 28 30  1  0  0  0  0
 29 31  2  0  0  0  0
 30 32  2  0  0  0  0
 31 32  1  0  0  0  0
M  END
