986
 OpenBabel10141417503D

 23 25  0  0  1  0  0  0  0  0999 V2000
    2.8446   -0.8818    0.4430 O   0  0  0  0  0  0  0  0  0  0  0  0
    3.4203   -1.4356   -2.0383 O   0  0  0  0  0  0  0  0  0  0  0  0
    2.7070    1.3690    0.0938 O   0  0  0  0  0  0  0  0  0  0  0  0
    3.3529   -0.7235    4.0691 N   0  3  0  0  0  0  0  0  0  0  0  0
    3.5417   -0.1063    2.6638 C   0  0  0  0  0  0  0  0  0  0  0  0
    2.4101   -0.6581    1.7921 C   0  0  3  0  0  0  0  0  0  0  0  0
    2.1729   -1.6948    3.9350 C   0  0  0  0  0  0  0  0  0  0  0  0
    3.1465    0.8471   -2.8414 C   0  0  0  0  0  0  0  0  0  0  0  0
    2.0722   -1.9861    2.4516 C   0  0  0  0  0  0  0  0  0  0  0  0
    3.6860   -0.0659   -1.6933 C   0  0  3  0  0  0  0  0  0  0  0  0
    1.6342    0.7194   -3.1394 C   0  0  0  0  0  0  0  0  0  0  0  0
    3.8311    0.5731   -4.2018 C   0  0  0  0  0  0  0  0  0  0  0  0
    1.5083    0.3026   -4.6017 C   0  0  0  0  0  0  0  0  0  0  0  0
    2.7680    0.8365   -5.2541 C   0  0  0  0  0  0  0  0  0  0  0  0
    4.6210   -1.4586    4.4879 C   0  0  0  0  0  0  0  0  0  0  0  0
    3.0461    0.3633    5.0875 C   0  0  0  0  0  0  0  0  0  0  0  0
    3.0019    0.2591   -0.3174 C   0  0  0  0  0  0  0  0  0  0  0  0
    5.2096    0.1188   -1.5258 C   0  0  0  0  0  0  0  0  0  0  0  0
    5.7554    1.3801   -1.2146 C   0  0  0  0  0  0  0  0  0  0  0  0
    6.1055   -0.9499   -1.7133 C   0  0  0  0  0  0  0  0  0  0  0  0
    7.1381    1.5642   -1.1105 C   0  0  0  0  0  0  0  0  0  0  0  0
    7.4882   -0.7609   -1.6229 C   0  0  0  0  0  0  0  0  0  0  0  0
    8.0042    0.4957   -1.3224 C   0  0  0  0  0  0  0  0  0  0  0  0
  1  6  1  0  0  0  0
  1 17  1  0  0  0  0
  2 10  1  0  0  0  0
  3 17  2  0  0  0  0
  4  5  1  0  0  0  0
  4  7  1  0  0  0  0
  4 15  1  0  0  0  0
  4 16  1  0  0  0  0
  5  6  1  0  0  0  0
  6  9  1  0  0  0  0
  7  9  1  0  0  0  0
  8 10  1  0  0  0  0
  8 11  1  0  0  0  0
  8 12  1  0  0  0  0
 10 17  1  0  0  0  0
 10 18  1  0  0  0  0
 11 13  1  0  0  0  0
 12 14  1  0  0  0  0
 13 14  1  0  0  0  0
 18 19  2  0  0  0  0
 18 20  1  0  0  0  0
 19 21  1  0  0  0  0
 20 22  2  0  0  0  0
 21 23  2  0  0  0  0
 22 23  1  0  0  0  0
M  CHG  1   4   1
M  END
