1382
 OpenBabel10141417523D

 21 22  0  0  0  0  0  0  0  0999 V2000
    3.3944    0.9617    1.4655 S   0  0  0  0  0  0  0  0  0  0  0  0
   -2.5540    2.5772    0.4865 O   0  0  0  0  0  0  0  0  0  0  0  0
    2.8166    0.6802    2.7677 O   0  0  0  0  0  0  0  0  0  0  0  0
    4.8272    0.9273    1.2771 O   0  0  0  0  0  0  0  0  0  0  0  0
   -5.0030    0.2813   -1.0107 O   0  0  0  0  0  0  0  0  0  0  0  0
    2.8755    2.4602    0.9170 N   0  0  0  0  0  0  0  0  0  0  0  0
    1.0109    2.2597   -0.4095 N   0  0  0  0  0  0  0  0  0  0  0  0
    0.7871    2.9097    1.8724 N   0  0  0  0  0  0  0  0  0  0  0  0
    2.6991   -0.2070    0.3093 C   0  0  0  0  0  0  0  0  0  0  0  0
    3.4004   -0.5193   -0.8602 C   0  0  0  0  0  0  0  0  0  0  0  0
    1.4921   -0.8475    0.6106 C   0  0  0  0  0  0  0  0  0  0  0  0
    1.4932    2.5755    0.7936 C   0  0  0  0  0  0  0  0  0  0  0  0
   -3.0927    1.6293   -0.4466 C   0  0  0  0  0  0  0  0  0  0  0  0
    2.8757   -1.4644   -1.7424 C   0  0  0  0  0  0  0  0  0  0  0  0
    0.9785   -1.7958   -0.2736 C   0  0  0  0  0  0  0  0  0  0  0  0
   -1.1904    2.5876    0.5296 C   0  0  0  0  0  0  0  0  0  0  0  0
    1.6699   -2.1035   -1.4469 C   0  0  0  0  0  0  0  0  0  0  0  0
   -4.5266    1.2554   -0.0784 C   0  0  0  0  0  0  0  0  0  0  0  0
   -0.3366    2.2662   -0.5081 C   0  0  0  0  0  0  0  0  0  0  0  0
   -0.5547    2.9354    1.7044 C   0  0  0  0  0  0  0  0  0  0  0  0
   -6.3330   -0.1250   -0.7092 C   0  0  0  0  0  0  0  0  0  0  0  0
  1  3  2  0  0  0  0
  1  4  2  0  0  0  0
  1  6  1  0  0  0  0
  1  9  1  0  0  0  0
  2 13  1  0  0  0  0
  2 16  1  0  0  0  0
  5 18  1  0  0  0  0
  5 21  1  0  0  0  0
  6 12  1  0  0  0  0
  7 12  1  0  0  0  0
  7 19  2  0  0  0  0
  8 12  2  0  0  0  0
  8 20  1  0  0  0  0
  9 10  2  0  0  0  0
  9 11  1  0  0  0  0
 10 14  1  0  0  0  0
 11 15  2  0  0  0  0
 13 18  1  0  0  0  0
 14 17  2  0  0  0  0
 15 17  1  0  0  0  0
 16 19  1  0  0  0  0
 16 20  2  0  0  0  0
M  END
