644
 OpenBabel10141419053D

 85 90  0  0  1  0  0  0  0  0999 V2000
    6.1956   -0.6598    3.0546 O   0  0  0  0  0  0  0  0  0  0  0  0
    2.5804    0.6744    0.7322 O   0  0  0  0  0  0  0  0  0  0  0  0
    6.6873    2.4731    3.7609 O   0  0  0  0  0  0  0  0  0  0  0  0
    0.5231   -3.8459   -1.6432 O   0  0  0  0  0  0  0  0  0  0  0  0
    7.1864    7.8761    3.1194 O   0  0  0  0  0  0  0  0  0  0  0  0
    5.0617    0.9825   18.3459 O   0  0  0  0  0  0  0  0  0  0  0  0
    1.4735    0.4284   14.8661 O   0  0  0  0  0  0  0  0  0  0  0  0
    6.7216    4.0670   18.3386 O   0  0  0  0  0  0  0  0  0  0  0  0
    8.4265    5.8434   14.7034 O   0  0  0  0  0  0  0  0  0  0  0  0
    4.8894    6.7177    8.0222 O   0  0  0  0  0  0  0  0  0  0  0  0
    6.5820    8.4675   12.5208 O   0  0  0  0  0  0  0  0  0  0  0  0
    5.8965    4.0360   13.7887 O   0  0  0  0  0  0  0  0  0  0  0  0
    1.6397    2.6692   12.2715 O   0  0  0  0  0  0  0  0  0  0  0  0
    4.2138   -1.3215    2.1877 N   0  0  0  0  0  0  0  0  0  0  0  0
    4.4167    2.1446    3.8241 N   0  0  0  0  0  0  0  0  0  0  0  0
    1.2648   -1.0094    0.0289 N   0  0  0  0  0  0  0  0  0  0  0  0
    6.2355    5.8762    3.4632 N   0  0  0  0  0  0  0  0  0  0  0  0
    0.7489    2.5662    4.9560 N   0  0  0  0  0  0  0  0  0  0  0  0
   -1.3155   -3.1127   -0.5182 N   0  0  0  0  0  0  0  0  0  0  0  0
    2.6066   -0.4080   16.7052 N   0  0  0  0  0  0  0  0  0  0  0  0
    3.4554    2.6580   18.4173 N   0  0  0  0  0  0  0  0  0  0  0  0
    7.0120    7.0372    7.0712 N   0  0  0  0  0  0  0  0  0  0  0  0
    5.9390    5.9867   17.4244 N   0  0  0  0  0  0  0  0  0  0  0  0
    6.3722    6.5268   14.4777 N   0  0  0  0  0  0  0  0  0  0  0  0
    6.5593    7.1939   10.6926 N   0  0  0  0  0  0  0  0  0  0  0  0
    0.3771    2.6280    7.1959 N   0  0  0  0  0  0  0  0  0  0  0  0
    0.9448    0.6879    6.4538 N   0  0  0  0  0  0  0  0  0  0  0  0
   11.7621    7.5299   15.1892 N   0  0  0  0  0  0  0  0  0  0  0  0
    2.7165    4.0450   22.3329 N   0  0  0  0  0  0  0  0  0  0  0  0
    4.6389    3.7359   23.3812 N   0  0  0  0  0  0  0  0  0  0  0  0
    2.7909   -1.4212    1.9922 C   0  0  3  0  0  0  0  0  0  0  0  0
    2.5478   -2.8923    2.1963 C   0  0  0  0  0  0  0  0  0  0  0  0
    3.6300   -3.4831    1.3452 C   0  0  0  0  0  0  0  0  0  0  0  0
    4.7853   -2.4845    1.5062 C   0  0  0  0  0  0  0  0  0  0  0  0
    4.9726   -0.4779    2.9987 C   0  0  0  0  0  0  0  0  0  0  0  0
    4.2976    0.6229    3.9549 C   0  0  3  0  0  0  0  0  0  0  0  0
    2.2652   -0.5164    0.8248 C   0  0  0  0  0  0  0  0  0  0  0  0
    2.8719    0.1510    4.3681 C   0  0  0  0  0  0  0  0  0  0  0  0
    1.4854    0.5650    3.6788 C   0  0  0  0  0  0  0  0  0  0  0  0
    5.4243    4.7121    4.1099 C   0  0  3  0  0  0  0  0  0  0  0  0
    5.5656    2.9812    3.8382 C   0  0  0  0  0  0  0  0  0  0  0  0
    3.9123    5.0995    4.3236 C   0  0  0  0  0  0  0  0  0  0  0  0
    0.9510    1.9569    3.6509 C   0  0  0  0  0  0  0  0  0  0  0  0
    0.7917   -2.3395    0.1857 C   0  0  0  0  0  0  0  0  0  0  0  0
    3.5938    6.0543    5.4865 C   0  0  0  0  0  0  0  0  0  0  0  0
    4.0325    7.4693    5.2084 C   0  0  0  0  0  0  0  0  0  0  0  0
    2.1124    6.1762    5.8283 C   0  0  0  0  0  0  0  0  0  0  0  0
    0.0160   -3.1703   -0.7739 C   0  0  0  0  0  0  0  0  0  0  0  0
    6.8191    7.0446    3.9829 C   0  0  0  0  0  0  0  0  0  0  0  0
    2.7285    0.0474   18.0872 C   0  0  3  0  0  0  0  0  0  0  0  0
    1.2894    0.4686   18.3341 C   0  0  0  0  0  0  0  0  0  0  0  0
    6.8955    7.5937    5.6012 C   0  0  0  0  0  0  0  0  0  0  0  0
    1.0266    1.2513   17.0452 C   0  0  0  0  0  0  0  0  0  0  0  0
    4.1295    4.1454   18.6513 C   0  0  3  0  0  0  0  0  0  0  0  0
    7.3168    6.5650   16.7534 C   0  0  3  0  0  0  0  0  0  0  0  0
    0.7100    1.9658    6.0657 C   0  0  0  0  0  0  0  0  0  0  0  0
    3.8746    1.3026   18.3513 C   0  0  0  0  0  0  0  0  0  0  0  0
    8.7760    6.4309   17.3895 C   0  0  0  0  0  0  0  0  0  0  0  0
    1.6635    0.3700   15.9763 C   0  0  0  0  0  0  0  0  0  0  0  0
    3.5018    4.8503   19.9866 C   0  0  0  0  0  0  0  0  0  0  0  0
    5.7175    4.7390   18.0952 C   0  0  0  0  0  0  0  0  0  0  0  0
   10.0469    7.1347   16.6567 C   0  0  0  0  0  0  0  0  0  0  0  0
    6.7416    6.1782    9.5384 C   0  0  3  0  0  0  0  0  0  0  0  0
    7.4537    6.2125   15.2595 C   0  0  0  0  0  0  0  0  0  0  0  0
    6.1106    6.6747    8.1065 C   0  0  0  0  0  0  0  0  0  0  0  0
   10.9177    8.2109   17.1332 C   0  0  0  0  0  0  0  0  0  0  0  0
    6.5828    6.1656   13.0813 C   0  0  3  0  0  0  0  0  0  0  0  0
    3.7004    4.2484   21.3657 C   0  0  0  0  0  0  0  0  0  0  0  0
    6.4344    4.6035    9.7001 C   0  0  0  0  0  0  0  0  0  0  0  0
   11.9537    8.4156   16.2027 C   0  0  0  0  0  0  0  0  0  0  0  0
   10.6482    6.7866   15.4452 C   0  0  0  0  0  0  0  0  0  0  0  0
    6.5571    7.3118   12.0675 C   0  0  0  0  0  0  0  0  0  0  0  0
    5.5461    5.1681   12.9369 C   0  0  0  0  0  0  0  0  0  0  0  0
   10.9306    9.0553   18.2616 C   0  0  0  0  0  0  0  0  0  0  0  0
    5.1498    3.8899   10.2016 C   0  0  0  0  0  0  0  0  0  0  0  0
   12.9640    9.3765   16.3299 C   0  0  0  0  0  0  0  0  0  0  0  0
    4.8701    4.0091   22.0573 C   0  0  0  0  0  0  0  0  0  0  0  0
   11.9967    9.9540   18.4604 C   0  0  0  0  0  0  0  0  0  0  0  0
   12.9967   10.1131   17.5064 C   0  0  0  0  0  0  0  0  0  0  0  0
    3.3435    3.8484   23.5392 C   0  0  0  0  0  0  0  0  0  0  0  0
    5.1686    3.1836   11.4137 C   0  0  0  0  0  0  0  0  0  0  0  0
    3.9251    3.8448    9.5921 C   0  0  0  0  0  0  0  0  0  0  0  0
    3.9959    3.0159   12.2362 C   0  0  0  0  0  0  0  0  0  0  0  0
    2.7920    3.3105   10.2727 C   0  0  0  0  0  0  0  0  0  0  0  0
    2.7881    3.0011   11.6236 C   0  0  0  0  0  0  0  0  0  0  0  0
  1 35  2  0  0  0  0
  2 37  2  0  0  0  0
  3 41  2  0  0  0  0
  4 48  2  0  0  0  0
  5 49  2  0  0  0  0
  6 57  2  0  0  0  0
  7 59  2  0  0  0  0
  8 61  2  0  0  0  0
  9 64  2  0  0  0  0
 10 65  2  0  0  0  0
 11 72  2  0  0  0  0
 12 73  1  0  0  0  0
 13 85  1  0  0  0  0
 14 31  1  0  0  0  0
 14 34  1  0  0  0  0
 14 35  1  0  0  0  0
 15 36  1  0  0  0  0
 15 41  1  0  0  0  0
 16 37  1  0  0  0  0
 16 44  1  0  0  0  0
 17 40  1  0  0  0  0
 17 49  1  0  0  0  0
 18 43  1  0  0  0  0
 18 56  2  0  0  0  0
 19 48  1  0  0  0  0
 20 50  1  0  0  0  0
 20 59  1  0  0  0  0
 21 54  1  0  0  0  0
 21 57  1  0  0  0  0
 22 52  1  0  0  0  0
 22 65  1  0  0  0  0
 23 55  1  0  0  0  0
 23 61  1  0  0  0  0
 24 64  1  0  0  0  0
 24 67  1  0  0  0  0
 25 63  1  0  0  0  0
 25 72  1  0  0  0  0
 26 56  1  0  0  0  0
 27 56  1  0  0  0  0
 28 70  1  0  0  0  0
 28 71  1  0  0  0  0
 29 68  1  0  0  0  0
 29 80  1  0  0  0  0
 30 77  1  0  0  0  0
 30 80  2  0  0  0  0
 31 32  1  0  0  0  0
 31 37  1  0  0  0  0
 32 33  1  0  0  0  0
 33 34  1  0  0  0  0
 35 36  1  0  0  0  0
 36 38  1  0  0  0  0
 38 39  1  0  0  0  0
 39 43  1  0  0  0  0
 40 41  1  0  0  0  0
 40 42  1  0  0  0  0
 42 45  1  0  0  0  0
 44 48  1  0  0  0  0
 45 46  1  0  0  0  0
 45 47  1  0  0  0  0
 49 52  1  0  0  0  0
 50 51  1  0  0  0  0
 50 57  1  0  0  0  0
 51 53  1  0  0  0  0
 53 59  1  0  0  0  0
 54 60  1  0  0  0  0
 54 61  1  0  0  0  0
 55 58  1  0  0  0  0
 55 64  1  0  0  0  0
 58 62  1  0  0  0  0
 60 68  1  0  0  0  0
 62 66  1  0  0  0  0
 62 71  2  0  0  0  0
 63 65  1  0  0  0  0
 63 69  1  0  0  0  0
 66 70  1  0  0  0  0
 66 74  2  0  0  0  0
 67 72  1  0  0  0  0
 67 73  1  0  0  0  0
 68 77  2  0  0  0  0
 69 75  1  0  0  0  0
 70 76  2  0  0  0  0
 74 78  1  0  0  0  0
 75 81  2  0  0  0  0
 75 82  1  0  0  0  0
 76 79  1  0  0  0  0
 78 79  2  0  0  0  0
 81 83  1  0  0  0  0
 82 84  2  0  0  0  0
 83 85  2  0  0  0  0
 84 85  1  0  0  0  0
M  END
