889
 OpenBabel10141417513D

 23 26  0  0  1  0  0  0  0  0999 V2000
    4.0821    0.9572    1.0371 O   0  0  0  0  0  0  0  0  0  0  0  0
    0.0031    4.7764    0.4661 N   0  0  0  0  0  0  0  0  0  0  0  0
    3.7700    3.1733    0.5270 N   0  0  0  0  0  0  0  0  0  0  0  0
    6.3177    3.2385   -0.5647 N   0  0  0  0  0  0  0  0  0  0  0  0
    7.3988    2.8773   -1.2889 N   0  0  0  0  0  0  0  0  0  0  0  0
    0.3518    3.5861   -0.3182 C   0  0  3  0  0  0  0  0  0  0  0  0
    1.2143    5.5438    0.7749 C   0  0  3  0  0  0  0  0  0  0  0  0
    1.3296    2.6447    0.4073 C   0  0  0  0  0  0  0  0  0  0  0  0
    2.2213    4.7546    1.6234 C   0  0  0  0  0  0  0  0  0  0  0  0
    2.4805    3.3092    1.1855 C   0  0  3  0  0  0  0  0  0  0  0  0
    0.8483    4.0494   -1.6983 C   0  0  0  0  0  0  0  0  0  0  0  0
    1.8031    6.0913   -0.5397 C   0  0  0  0  0  0  0  0  0  0  0  0
    1.9958    5.0493   -1.6384 C   0  0  0  0  0  0  0  0  0  0  0  0
   -0.8161    4.4775    1.6366 C   0  0  0  0  0  0  0  0  0  0  0  0
    4.4713    1.9799    0.4984 C   0  0  0  0  0  0  0  0  0  0  0  0
    5.7110    2.0614   -0.2911 C   0  0  0  0  0  0  0  0  0  0  0  0
    6.3771    0.9736   -0.9239 C   0  0  0  0  0  0  0  0  0  0  0  0
    7.4489    1.5423   -1.6024 C   0  0  0  0  0  0  0  0  0  0  0  0
    6.1534   -0.4146   -1.0287 C   0  0  0  0  0  0  0  0  0  0  0  0
    8.3133    0.7863   -2.4077 C   0  0  0  0  0  0  0  0  0  0  0  0
    8.3434    3.8943   -1.6885 C   0  0  0  0  0  0  0  0  0  0  0  0
    6.9983   -1.1796   -1.8383 C   0  0  0  0  0  0  0  0  0  0  0  0
    8.0575   -0.5851   -2.5206 C   0  0  0  0  0  0  0  0  0  0  0  0
  1 15  2  0  0  0  0
  2  6  1  0  0  0  0
  2  7  1  0  0  0  0
  2 14  1  0  0  0  0
  3 10  1  0  0  0  0
  3 15  1  0  0  0  0
  4  5  1  0  0  0  0
  4 16  2  0  0  0  0
  5 18  1  0  0  0  0
  5 21  1  0  0  0  0
  6  8  1  0  0  0  0
  6 11  1  0  0  0  0
  7  9  1  0  0  0  0
  7 12  1  0  0  0  0
  8 10  1  0  0  0  0
  9 10  1  0  0  0  0
 11 13  1  0  0  0  0
 12 13  1  0  0  0  0
 15 16  1  0  0  0  0
 16 17  1  0  0  0  0
 17 18  1  0  0  0  0
 17 19  2  0  0  0  0
 18 20  2  0  0  0  0
 19 22  1  0  0  0  0
 20 23  1  0  0  0  0
 22 23  2  0  0  0  0
M  END
