400
 OpenBabel10141417493D

 24 26  0  0  1  0  0  0  0  0999 V2000
    7.8663    2.3203    0.3960 Cl  0  0  0  0  0  0  0  0  0  0  0  0
    5.0096    3.3682    0.2626 O   0  0  0  0  0  0  0  0  0  0  0  0
    3.3117    3.6926   -2.1952 O   0  0  0  0  0  0  0  0  0  0  0  0
    1.7617    1.9284    0.0519 O   0  0  0  0  0  0  0  0  0  0  0  0
    2.8579    7.6962    0.3300 O   0  0  0  0  0  0  0  0  0  0  0  0
    2.8285   -0.7691    0.0871 O   0  0  0  0  0  0  0  0  0  0  0  0
    7.7073   -0.6215    0.3217 O   0  0  0  0  0  0  0  0  0  0  0  0
    3.5678    3.6095    0.2287 C   0  0  2  0  0  0  0  0  0  0  0  0
    3.1909    4.3233    1.5553 C   0  0  1  0  0  0  0  0  0  0  0  0
    3.6802    5.7770    1.5182 C   0  0  0  0  0  0  0  0  0  0  0  0
    2.9458    2.2139    0.1354 C   0  0  0  0  0  0  0  0  0  0  0  0
    3.2813    4.4341   -1.0244 C   0  0  0  0  0  0  0  0  0  0  0  0
    1.6936    4.2895    1.8954 C   0  0  0  0  0  0  0  0  0  0  0  0
    4.0294    1.2587    0.1737 C   0  0  0  0  0  0  0  0  0  0  0  0
    5.1889    2.0052    0.2470 C   0  0  0  0  0  0  0  0  0  0  0  0
    3.1433    6.5020    0.3078 C   0  0  0  0  0  0  0  0  0  0  0  0
    3.0428    5.7573   -0.9687 C   0  0  0  0  0  0  0  0  0  0  0  0
    4.0271   -0.1277    0.1735 C   0  0  0  0  0  0  0  0  0  0  0  0
    6.4238    1.3762    0.2988 C   0  0  0  0  0  0  0  0  0  0  0  0
    5.2701   -0.7707    0.2083 C   0  0  0  0  0  0  0  0  0  0  0  0
    6.4697   -0.0297    0.2571 C   0  0  0  0  0  0  0  0  0  0  0  0
    3.0823    4.3689   -3.4276 C   0  0  0  0  0  0  0  0  0  0  0  0
    2.7399   -2.0473    0.7072 C   0  0  0  0  0  0  0  0  0  0  0  0
    7.8474   -1.8687   -0.3521 C   0  0  0  0  0  0  0  0  0  0  0  0
  1 19  1  0  0  0  0
  2 15  1  0  0  0  0
  3 12  1  0  0  0  0
  3 22  1  0  0  0  0
  4 11  2  0  0  0  0
  5 16  2  0  0  0  0
  6 18  1  0  0  0  0
  6 23  1  0  0  0  0
  7 21  1  0  0  0  0
  7 24  1  0  0  0  0
  8  2  1  1  0  0  0
  8  9  1  0  0  0  0
  8 11  1  0  0  0  0
  8 12  1  0  0  0  0
  9 10  1  0  0  0  0
  9 13  1  6  0  0  0
 10 16  1  0  0  0  0
 11 14  1  0  0  0  0
 12 17  2  0  0  0  0
 14 15  2  0  0  0  0
 14 18  1  0  0  0  0
 15 19  1  0  0  0  0
 16 17  1  0  0  0  0
 18 20  2  0  0  0  0
 19 21  2  0  0  0  0
 20 21  1  0  0  0  0
M  END
