874
 OpenBabel10141417523D

 14 14  0  0  1  0  0  0  0  0999 V2000
    3.7009   -0.4767    1.4513 O   0  0  0  0  0  0  0  0  0  0  0  0
    2.6772   -1.4244    3.9487 O   0  0  0  0  0  0  0  0  0  0  0  0
    2.2870    1.2352    3.0536 O   0  0  0  0  0  0  0  0  0  0  0  0
    3.7214   -2.5102   -0.6800 O   0  0  0  0  0  0  0  0  0  0  0  0
    1.8205   -1.1607    2.8281 C   0  0  3  0  0  0  0  0  0  0  0  0
    2.6050   -1.3914    1.5252 C   0  0  0  0  0  0  0  0  0  0  0  0
    1.2511    0.2568    2.9666 C   0  0  0  0  0  0  0  0  0  0  0  0
    4.7279   -0.7290    0.5818 C   0  0  0  0  0  0  0  0  0  0  0  0
    4.8048   -1.7023   -0.4318 C   0  0  0  0  0  0  0  0  0  0  0  0
    5.8142    0.1365    0.7670 C   0  0  0  0  0  0  0  0  0  0  0  0
    5.9583   -1.7644   -1.2332 C   0  0  0  0  0  0  0  0  0  0  0  0
    6.9549    0.0580   -0.0334 C   0  0  0  0  0  0  0  0  0  0  0  0
    7.0232   -0.8925   -1.0426 C   0  0  0  0  0  0  0  0  0  0  0  0
    4.0070   -3.8275   -1.1540 C   0  0  0  0  0  0  0  0  0  0  0  0
  1  6  1  0  0  0  0
  1  8  1  0  0  0  0
  2  5  1  0  0  0  0
  3  7  1  0  0  0  0
  4  9  1  0  0  0  0
  4 14  1  0  0  0  0
  5  6  1  0  0  0  0
  5  7  1  0  0  0  0
  8  9  1  0  0  0  0
  8 10  2  0  0  0  0
  9 11  2  0  0  0  0
 10 12  1  0  0  0  0
 11 13  1  0  0  0  0
 12 13  2  0  0  0  0
M  END
