629
 OpenBabel10141417543D

 14 14  0  0  0  0  0  0  0  0999 V2000
    1.7243    1.1504   -0.7990 Cl  0  0  0  0  0  0  0  0  0  0  0  0
    6.1051   -1.7035    1.0103 Cl  0  0  0  0  0  0  0  0  0  0  0  0
    3.4677   -2.6326   -0.0623 N   0  0  0  0  0  0  0  0  0  0  0  0
    2.4227   -3.5508    0.0964 N   0  0  0  0  0  0  0  0  0  0  0  0
    4.0131   -5.1007   -0.6733 N   0  0  0  0  0  0  0  0  0  0  0  0
    1.9476   -5.8124   -0.1261 N   0  0  0  0  0  0  0  0  0  0  0  0
    3.9413   -0.2501    0.0661 C   0  0  0  0  0  0  0  0  0  0  0  0
    3.3913    0.9684   -0.3678 C   0  0  0  0  0  0  0  0  0  0  0  0
    5.3096   -0.3009    0.3810 C   0  0  0  0  0  0  0  0  0  0  0  0
    4.1974    2.1062   -0.4994 C   0  0  0  0  0  0  0  0  0  0  0  0
    6.1064    0.8451    0.2455 C   0  0  0  0  0  0  0  0  0  0  0  0
    5.5542    2.0447   -0.1964 C   0  0  0  0  0  0  0  0  0  0  0  0
    3.0569   -1.4284    0.1758 C   0  0  0  0  0  0  0  0  0  0  0  0
    2.7852   -4.7573   -0.2109 C   0  0  0  0  0  0  0  0  0  0  0  0
  1  8  1  0  0  0  0
  2  9  1  0  0  0  0
  3  4  1  0  0  0  0
  3 13  2  3  0  0  0
  4 14  2  0  0  0  0
  5 14  1  0  0  0  0
  6 14  1  0  0  0  0
  7  8  2  0  0  0  0
  7  9  1  0  0  0  0
  7 13  1  0  0  0  0
  8 10  1  0  0  0  0
  9 11  2  0  0  0  0
 10 12  2  0  0  0  0
 11 12  1  0  0  0  0
M  END
