1170
 OpenBabel10141417503D

 14 14  0  0  0  0  0  0  0  0999 V2000
   -1.3829   -0.0488    0.5320 N   0  0  0  0  0  0  0  0  0  0  0  0
   -4.2998   -0.7666    2.8912 N   0  0  0  0  0  0  0  0  0  0  0  0
   -4.0334   -2.5058    4.5018 N   0  0  0  0  0  0  0  0  0  0  0  0
   -5.8776   -1.2866    4.4455 N   0  0  0  0  0  0  0  0  0  0  0  0
   -1.2289    1.1324   -0.3385 C   0  0  0  0  0  0  0  0  0  0  0  0
   -1.2287   -1.3206   -0.1887 C   0  0  0  0  0  0  0  0  0  0  0  0
    0.1862    1.4473   -0.8429 C   0  0  0  0  0  0  0  0  0  0  0  0
    0.1747   -1.6467   -0.7174 C   0  0  0  0  0  0  0  0  0  0  0  0
    1.2921    1.2342    0.1925 C   0  0  0  0  0  0  0  0  0  0  0  0
    1.3015   -1.3645    0.2797 C   0  0  0  0  0  0  0  0  0  0  0  0
    2.0717   -0.0700    0.0120 C   0  0  0  0  0  0  0  0  0  0  0  0
   -2.7084    0.0335    1.2061 C   0  0  0  0  0  0  0  0  0  0  0  0
   -2.9765   -1.0180    2.3052 C   0  0  0  0  0  0  0  0  0  0  0  0
   -4.6712   -1.4931    3.8732 C   0  0  0  0  0  0  0  0  0  0  0  0
  1  5  1  0  0  0  0
  1  6  1  0  0  0  0
  1 12  1  0  0  0  0
  2 13  1  0  0  0  0
  2 14  2  0  0  0  0
  3 14  1  0  0  0  0
  4 14  1  0  0  0  0
  5  7  1  0  0  0  0
  6  8  1  0  0  0  0
  7  9  1  0  0  0  0
  8 10  1  0  0  0  0
  9 11  1  0  0  0  0
 10 11  1  0  0  0  0
 12 13  1  0  0  0  0
M  END
