38521
 OpenBabel10141417473D

 15 16  0  0  1  0  0  0  0  0999 V2000
   -0.6271   -0.4168   -0.5976 O   0  0  0  0  0  0  0  0  0  0  0  0
   -0.8917    0.9758    1.2690 O   0  0  0  0  0  0  0  0  0  0  0  0
   -3.9437   -1.5160    0.6311 N   0  0  0  0  0  0  0  0  0  0  0  0
   -3.9784   -3.6376    1.7166 N   0  0  0  0  0  0  0  0  0  0  0  0
   -5.8525   -2.5176    1.3607 N   0  0  0  0  0  0  0  0  0  0  0  0
    0.0634    0.3693    0.3880 C   0  0  0  0  0  0  0  0  0  0  0  0
    0.9900   -0.5316    1.2102 C   0  0  0  0  0  0  0  0  0  0  0  0
    0.8622    1.4684   -0.3264 C   0  0  0  0  0  0  0  0  0  0  0  0
    2.0116    0.9020   -1.1582 C   0  0  0  0  0  0  0  0  0  0  0  0
    2.1368   -1.0991    0.3763 C   0  0  0  0  0  0  0  0  0  0  0  0
    2.9217    0.0077   -0.3216 C   0  0  0  0  0  0  0  0  0  0  0  0
   -2.0256   -0.3061   -0.2889 C   0  0  3  0  0  0  0  0  0  0  0  0
   -2.1191    0.9554    0.5381 C   0  0  0  0  0  0  0  0  0  0  0  0
   -2.4885   -1.5537    0.4739 C   0  0  0  0  0  0  0  0  0  0  0  0
   -4.5118   -2.5075    1.2048 C   0  0  0  0  0  0  0  0  0  0  0  0
  1  6  1  0  0  0  0
  1 12  1  0  0  0  0
  2  6  1  0  0  0  0
  2 13  1  0  0  0  0
  3 14  1  0  0  0  0
  3 15  2  0  0  0  0
  4 15  1  0  0  0  0
  5 15  1  0  0  0  0
  6  7  1  0  0  0  0
  6  8  1  0  0  0  0
  7 10  1  0  0  0  0
  8  9  1  0  0  0  0
  9 11  1  0  0  0  0
 10 11  1  0  0  0  0
 12 13  1  0  0  0  0
 12 14  1  0  0  0  0
M  END
