
 OpenBabel10141417513D

  7  6  0  0  1  0  0  0  0  0999 V2000
    1.1121    0.1856   -0.6979 Br  0  0  0  0  0  0  0  0  0  0  0  0
    3.9315   -0.6925   -1.3861 Cl  0  0  0  0  0  0  0  0  0  0  0  0
    2.7348    1.6667    1.5720 F   0  0  0  0  0  0  0  0  0  0  0  0
    4.7428    1.0498    1.0243 F   0  0  0  0  0  0  0  0  0  0  0  0
    3.5537    2.2332   -0.3706 F   0  0  0  0  0  0  0  0  0  0  0  0
    3.4915    1.2316    0.5345 C   0  0  0  0  0  0  0  0  0  0  0  0
    2.9398   -0.0600   -0.0464 C   0  0  3  0  0  0  0  0  0  0  0  0
  1  7  1  0  0  0  0
  2  7  1  0  0  0  0
  3  6  1  0  0  0  0
  4  6  1  0  0  0  0
  5  6  1  0  0  0  0
  6  7  1  0  0  0  0
M  END
