596
 OpenBabel10141417503D

 33 36  0  0  1  0  0  0  0  0999 V2000
   15.8240   -2.1828   -2.7648 Cl  0  0  0  0  0  0  0  0  0  0  0  0
    9.2851    0.3268   -3.7770 F   0  0  0  0  0  0  0  0  0  0  0  0
    6.2818   -1.4871   -1.0578 F   0  0  0  0  0  0  0  0  0  0  0  0
   13.2881   -0.7738   -3.4722 O   0  0  0  0  0  0  0  0  0  0  0  0
   10.2881    3.1878   -1.7897 O   0  0  0  0  0  0  0  0  0  0  0  0
   14.9258    1.3268   -1.2094 O   0  0  0  0  0  0  0  0  0  0  0  0
   14.4090    1.0675   -4.2554 O   0  0  0  0  0  0  0  0  0  0  0  0
    4.6848    0.4644   -5.2381 O   0  0  0  0  0  0  0  0  0  0  0  0
   12.1035    0.6276   -1.8001 C   0  0  3  0  0  0  0  0  0  0  0  0
   10.9665   -0.4251   -1.7279 C   0  0  3  0  0  0  0  0  0  0  0  0
    9.5736    0.1678   -1.4505 C   0  0  3  0  0  0  0  0  0  0  0  0
    9.2125    1.1159   -2.6376 C   0  0  1  0  0  0  0  0  0  0  0  0
   13.3539   -0.3319   -2.0730 C   0  0  1  0  0  0  0  0  0  0  0  0
   11.5101   -1.4651   -0.7705 C   0  0  0  0  0  0  0  0  0  0  0  0
   11.7214    1.6069   -2.9385 C   0  0  0  0  0  0  0  0  0  0  0  0
   12.9928   -1.6119   -1.1916 C   0  0  2  0  0  0  0  0  0  0  0  0
   10.3069    2.2115   -2.8236 C   0  0  3  0  0  0  0  0  0  0  0  0
    7.7248    1.6402   -2.5763 C   0  0  3  0  0  0  0  0  0  0  0  0
    8.5418   -0.9574   -1.2730 C   0  0  0  0  0  0  0  0  0  0  0  0
   12.2541    1.4108   -0.4654 C   0  0  0  0  0  0  0  0  0  0  0  0
    7.1195   -0.4167   -1.1573 C   0  0  1  0  0  0  0  0  0  0  0  0
    6.8075    0.4233   -2.3632 C   0  0  0  0  0  0  0  0  0  0  0  0
   14.7739    0.2203   -1.7449 C   0  0  0  0  0  0  0  0  0  0  0  0
   13.8162   -1.9063    0.0650 C   0  0  0  0  0  0  0  0  0  0  0  0
    7.4730    2.6485   -1.4351 C   0  0  0  0  0  0  0  0  0  0  0  0
    7.3669    2.3640   -3.8769 C   0  0  0  0  0  0  0  0  0  0  0  0
    5.8334    0.0585   -3.2207 C   0  0  0  0  0  0  0  0  0  0  0  0
   16.0320   -0.5575   -2.0974 C   0  0  0  0  0  0  0  0  0  0  0  0
    6.4044    1.9946   -4.7295 C   0  0  0  0  0  0  0  0  0  0  0  0
   13.8687   -0.0113   -4.4470 C   0  0  0  0  0  0  0  0  0  0  0  0
    5.5654    0.8085   -4.4604 C   0  0  0  0  0  0  0  0  0  0  0  0
   13.7466   -0.6764   -5.7927 C   0  0  0  0  0  0  0  0  0  0  0  0
   14.7909   -0.1387   -6.7601 C   0  0  0  0  0  0  0  0  0  0  0  0
  1 28  1  0  0  0  0
  4 30  1  0  0  0  0
  5 17  1  0  0  0  0
  6 23  2  0  0  0  0
  7 30  2  0  0  0  0
  8 31  2  0  0  0  0
  9 10  1  0  0  0  0
  9 13  1  0  0  0  0
  9 15  1  0  0  0  0
  9 20  1  0  0  0  0
 10 11  1  0  0  0  0
 10 14  1  0  0  0  0
 11 12  1  0  0  0  0
 11 19  1  0  0  0  0
 12  2  1  6  0  0  0
 12 17  1  0  0  0  0
 12 18  1  0  0  0  0
 13  4  1  6  0  0  0
 13 16  1  0  0  0  0
 13 23  1  0  0  0  0
 14 16  1  0  0  0  0
 15 17  1  0  0  0  0
 16 24  1  1  0  0  0
 18 22  1  0  0  0  0
 18 25  1  0  0  0  0
 18 26  1  0  0  0  0
 19 21  1  0  0  0  0
 21  3  1  6  0  0  0
 21 22  1  0  0  0  0
 22 27  2  0  0  0  0
 23 28  1  0  0  0  0
 26 29  2  0  0  0  0
 27 31  1  0  0  0  0
 29 31  1  0  0  0  0
 30 32  1  0  0  0  0
 32 33  1  0  0  0  0
M  END
