1452
 OpenBabel10141417483D

 27 31  0  0  1  0  0  0  0  0999 V2000
   -7.2578    1.5777    6.7157 O   0  0  0  0  0  0  0  0  0  0  0  0
  -10.2547    2.6999    5.4523 O   0  0  0  0  0  0  0  0  0  0  0  0
   -5.8528    2.3526    9.1332 O   0  0  0  0  0  0  0  0  0  0  0  0
   -8.6193    4.2846    5.7699 O   0  0  0  0  0  0  0  0  0  0  0  0
   -4.3898    1.5829   10.8032 O   0  0  0  0  0  0  0  0  0  0  0  0
   -9.2388   -3.4133    6.1702 N   0  0  0  0  0  0  0  0  0  0  0  0
   -8.5734   -0.4039    6.3798 C   0  0  1  0  0  0  0  0  0  0  0  0
   -9.9375   -1.0467    6.5255 C   0  0  2  0  0  0  0  0  0  0  0  0
   -9.4968   -2.4005    7.2066 C   0  0  1  0  0  0  0  0  0  0  0  0
   -8.4849    1.0901    6.0437 C   0  0  2  0  0  0  0  0  0  0  0  0
   -7.7317   -1.3581    5.4357 C   0  0  0  0  0  0  0  0  0  0  0  0
   -8.0177   -0.2757    7.7986 C   0  0  0  0  0  0  0  0  0  0  0  0
   -9.3690   -2.2257    8.7448 C   0  0  0  0  0  0  0  0  0  0  0  0
   -8.4772   -2.7314    5.0535 C   0  0  0  0  0  0  0  0  0  0  0  0
   -8.3748   -1.0524    8.9275 C   0  0  0  0  0  0  0  0  0  0  0  0
   -9.7035    1.9392    6.5502 C   0  0  2  0  0  0  0  0  0  0  0  0
  -10.9697   -0.1679    7.1742 C   0  0  0  0  0  0  0  0  0  0  0  0
   -7.2306    0.8521    7.8841 C   0  0  0  0  0  0  0  0  0  0  0  0
  -10.8629    1.1698    7.1481 C   0  0  0  0  0  0  0  0  0  0  0  0
  -10.4425   -4.0797    5.7025 C   0  0  0  0  0  0  0  0  0  0  0  0
   -7.8155   -0.6894   10.1472 C   0  0  0  0  0  0  0  0  0  0  0  0
   -6.6366    1.1891    9.0822 C   0  0  0  0  0  0  0  0  0  0  0  0
   -6.9461    0.4202   10.2193 C   0  0  0  0  0  0  0  0  0  0  0  0
   -9.5981    3.8611    5.1762 C   0  0  0  0  0  0  0  0  0  0  0  0
  -10.2704    4.5878    4.0547 C   0  0  0  0  0  0  0  0  0  0  0  0
   -4.7860    2.4460   10.0227 C   0  0  0  0  0  0  0  0  0  0  0  0
   -4.1793    3.8095    9.9244 C   0  0  0  0  0  0  0  0  0  0  0  0
  1 18  1  0  0  0  0
  2 24  1  0  0  0  0
  3 26  1  0  0  0  0
  3 22  1  0  0  0  0
  4 24  2  0  0  0  0
  5 26  2  0  0  0  0
  6 14  1  0  0  0  0
  6 20  1  0  0  0  0
  7  8  1  0  0  0  0
  7 10  1  0  0  0  0
  7 11  1  1  0  0  0
  7 12  1  0  0  0  0
  8  9  1  0  0  0  0
  8 17  1  6  0  0  0
  9  6  1  1  0  0  0
  9 13  1  0  0  0  0
 10  1  1  6  0  0  0
 10 16  1  0  0  0  0
 11 14  1  0  0  0  0
 12 15  2  0  0  0  0
 12 18  1  0  0  0  0
 13 15  1  0  0  0  0
 15 21  1  0  0  0  0
 16 19  1  0  0  0  0
 16  2  1  6  0  0  0
 17 19  2  0  0  0  0
 18 22  2  0  0  0  0
 21 23  2  0  0  0  0
 22 23  1  0  0  0  0
 24 25  1  0  0  0  0
 26 27  1  0  0  0  0
M  END
