1094
 OpenBabel10141417483D

 22 24  0  0  1  0  0  0  0  0999 V2000
   -1.1443    0.9792    0.3254 O   0  0  0  0  0  0  0  0  0  0  0  0
   -0.7333   -3.0499   -0.2683 O   0  0  0  0  0  0  0  0  0  0  0  0
    1.8621   -2.7436   -0.5468 O   0  0  0  0  0  0  0  0  0  0  0  0
   -7.1105    2.7849    1.2280 O   0  0  0  0  0  0  0  0  0  0  0  0
   -6.9076    1.1774   -1.2597 O   0  0  0  0  0  0  0  0  0  0  0  0
    3.5345    1.6392   -0.0740 O   0  0  0  0  0  0  0  0  0  0  0  0
   -2.2259    0.1962   -0.2012 C   0  0  1  0  0  0  0  0  0  0  0  0
   -2.1863   -1.2278    0.3407 C   0  0  0  0  0  0  0  0  0  0  0  0
   -3.5349    0.8794    0.1506 C   0  0  0  0  0  0  0  0  0  0  0  0
    0.2911   -0.9420   -0.1090 C   0  0  0  0  0  0  0  0  0  0  0  0
   -0.8728   -1.8444   -0.0524 C   0  0  0  0  0  0  0  0  0  0  0  0
    0.0859    0.4254    0.1048 C   0  0  0  0  0  0  0  0  0  0  0  0
   -4.6451    0.7373   -0.6957 C   0  0  0  0  0  0  0  0  0  0  0  0
   -3.6783    1.6432    1.3157 C   0  0  0  0  0  0  0  0  0  0  0  0
    1.5872   -1.4214   -0.3282 C   0  0  0  0  0  0  0  0  0  0  0  0
    1.1681    1.3043    0.1328 C   0  0  0  0  0  0  0  0  0  0  0  0
   -5.8674    1.3501   -0.3884 C   0  0  0  0  0  0  0  0  0  0  0  0
    2.6676   -0.5432   -0.3197 C   0  0  0  0  0  0  0  0  0  0  0  0
    2.4509    0.8121   -0.0844 C   0  0  0  0  0  0  0  0  0  0  0  0
   -4.8968    2.2570    1.6157 C   0  0  0  0  0  0  0  0  0  0  0  0
   -6.0058    2.1164    0.7737 C   0  0  0  0  0  0  0  0  0  0  0  0
   -8.3146    2.6606    0.4858 C   0  0  0  0  0  0  0  0  0  0  0  0
  1  7  1  0  0  0  0
  1 12  1  0  0  0  0
  2 11  2  0  0  0  0
  3 15  1  0  0  0  0
  4 21  1  0  0  0  0
  4 22  1  0  0  0  0
  5 17  1  0  0  0  0
  6 19  1  0  0  0  0
  7  8  1  0  0  0  0
  7  9  1  1  0  0  0
  8 11  1  0  0  0  0
  9 13  2  0  0  0  0
  9 14  1  0  0  0  0
 10 11  1  0  0  0  0
 10 12  1  0  0  0  0
 10 15  2  0  0  0  0
 12 16  2  0  0  0  0
 13 17  1  0  0  0  0
 14 20  2  0  0  0  0
 15 18  1  0  0  0  0
 16 19  1  0  0  0  0
 17 21  2  0  0  0  0
 18 19  2  0  0  0  0
 20 21  1  0  0  0  0
M  END
