739
 OpenBabel10141417513D

 27 30  0  0  1  0  0  0  0  0999 V2000
   -1.2488   -0.2349    0.0256 S   0  0  0  0  0  0  0  0  0  0  0  0
    2.4349    0.7654    1.8209 O   0  0  0  0  0  0  0  0  0  0  0  0
   -0.8704   -3.3895    1.3134 O   0  0  0  0  0  0  0  0  0  0  0  0
    1.6213    0.2389   -2.7216 O   0  0  0  0  0  0  0  0  0  0  0  0
    0.8633    2.3133   -2.9510 O   0  0  0  0  0  0  0  0  0  0  0  0
    1.3523    0.0970   -0.1304 N   0  0  0  0  0  0  0  0  0  0  0  0
    0.1947   -1.6811    2.4750 N   0  0  0  0  0  0  0  0  0  0  0  0
   -0.5662   -2.0959    4.6178 N   0  0  0  0  0  0  0  0  0  0  0  0
    0.4130   -1.0227   -0.0256 C   0  0  1  0  0  0  0  0  0  0  0  0
    1.1032   -1.3889    1.3249 C   0  0  1  0  0  0  0  0  0  0  0  0
    0.8583    1.3491   -0.6919 C   0  0  2  0  0  0  0  0  0  0  0  0
   -0.6235    1.4837   -0.2612 C   0  0  0  0  0  0  0  0  0  0  0  0
    1.7910   -0.0152    1.1522 C   0  0  0  0  0  0  0  0  0  0  0  0
    0.5195   -1.4454    3.8575 C   0  0  0  0  0  0  0  0  0  0  0  0
   -0.6476   -2.7885    2.3550 C   0  0  0  0  0  0  0  0  0  0  0  0
   -1.2069   -3.0949    3.7319 C   0  0  1  0  0  0  0  0  0  0  0  0
   -1.5547    2.1560   -1.2762 C   0  0  0  0  0  0  0  0  0  0  0  0
   -0.7464    2.2384    1.0740 C   0  0  0  0  0  0  0  0  0  0  0  0
    1.0952    1.3710   -2.2077 C   0  0  0  0  0  0  0  0  0  0  0  0
    1.8541   -2.0955    4.2501 C   0  0  0  0  0  0  0  0  0  0  0  0
    0.5150    0.0337    4.2601 C   0  0  0  0  0  0  0  0  0  0  0  0
   -1.0191   -4.5357    4.1688 C   0  0  0  0  0  0  0  0  0  0  0  0
   -0.2942   -4.8950    5.3161 C   0  0  0  0  0  0  0  0  0  0  0  0
   -1.6254   -5.5638    3.4241 C   0  0  0  0  0  0  0  0  0  0  0  0
   -0.1589   -6.2342    5.6908 C   0  0  0  0  0  0  0  0  0  0  0  0
   -1.4910   -6.9020    3.7987 C   0  0  0  0  0  0  0  0  0  0  0  0
   -0.7549   -7.2370    4.9310 C   0  0  0  0  0  0  0  0  0  0  0  0
  1 12  1  0  0  0  0
  2 13  2  0  0  0  0
  3 15  2  0  0  0  0
  4 19  1  0  0  0  0
  5 19  2  0  0  0  0
  6  9  1  0  0  0  0
  6 11  1  0  0  0  0
  6 13  1  0  0  0  0
  7 14  1  0  0  0  0
  7 15  1  0  0  0  0
  8 14  1  0  0  0  0
  8 16  1  0  0  0  0
  9  1  1  1  0  0  0
  9 10  1  0  0  0  0
 10 13  1  0  0  0  0
 10  7  1  1  0  0  0
 11 12  1  0  0  0  0
 11 19  1  6  0  0  0
 12 17  1  0  0  0  0
 12 18  1  0  0  0  0
 14 20  1  0  0  0  0
 14 21  1  0  0  0  0
 15 16  1  0  0  0  0
 16 22  1  1  0  0  0
 22 23  2  0  0  0  0
 22 24  1  0  0  0  0
 23 25  1  0  0  0  0
 24 26  2  0  0  0  0
 25 27  2  0  0  0  0
 26 27  1  0  0  0  0
M  END
