941
 OpenBabel10141417513D

 40 44  0  0  0  0  0  0  0  0999 V2000
   -2.4850   15.0681   -6.1533 N   0  3  0  0  0  0  0  0  0  0  0  0
    3.2516    8.9793   -7.1761 N   0  3  0  0  0  0  0  0  0  0  0  0
   -3.6707   14.2529   -5.4733 C   0  0  0  0  0  0  0  0  0  0  0  0
    3.8424    8.1538   -5.9235 C   0  0  0  0  0  0  0  0  0  0  0  0
   -1.3325   14.1849   -6.6717 C   0  0  0  0  0  0  0  0  0  0  0  0
    2.0532    9.8389   -6.7119 C   0  0  0  0  0  0  0  0  0  0  0  0
   -1.7174   13.1566   -7.7406 C   0  0  0  0  0  0  0  0  0  0  0  0
    1.3884   10.6882   -7.8105 C   0  0  0  0  0  0  0  0  0  0  0  0
   -4.8187   15.1466   -4.9852 C   0  0  0  0  0  0  0  0  0  0  0  0
   -3.2589   13.5781   -4.1663 C   0  0  0  0  0  0  0  0  0  0  0  0
    2.8192    7.2028   -5.2927 C   0  0  0  0  0  0  0  0  0  0  0  0
    4.1852    9.0427   -4.7227 C   0  0  0  0  0  0  0  0  0  0  0  0
   -0.5052   12.3561   -8.2783 C   0  0  0  0  0  0  0  0  0  0  0  0
    0.1999   11.4836   -7.2281 C   0  0  0  0  0  0  0  0  0  0  0  0
   -1.8568   16.0283   -5.1132 C   0  0  0  0  0  0  0  0  0  0  0  0
   -3.0222   15.9462   -7.2819 C   0  0  0  0  0  0  0  0  0  0  0  0
    2.8302    7.9930   -8.2605 C   0  0  0  0  0  0  0  0  0  0  0  0
    4.3583    9.8478   -7.7622 C   0  0  0  0  0  0  0  0  0  0  0  0
   -4.8223   15.2102   -3.5750 C   0  0  0  0  0  0  0  0  0  0  0  0
   -3.8475   14.2433   -3.0682 C   0  0  0  0  0  0  0  0  0  0  0  0
    2.4054    7.7058   -4.0382 C   0  0  0  0  0  0  0  0  0  0  0  0
    3.2394    8.8352   -3.6899 C   0  0  0  0  0  0  0  0  0  0  0  0
   -5.7766   15.8381   -5.7172 C   0  0  0  0  0  0  0  0  0  0  0  0
   -2.4325   12.4756   -3.9556 C   0  0  0  0  0  0  0  0  0  0  0  0
    2.3183    6.0002   -5.7737 C   0  0  0  0  0  0  0  0  0  0  0  0
    5.2343    9.9353   -4.5525 C   0  0  0  0  0  0  0  0  0  0  0  0
   -5.6977   16.0226   -2.8917 C   0  0  0  0  0  0  0  0  0  0  0  0
   -3.5314   13.9129   -1.7735 C   0  0  0  0  0  0  0  0  0  0  0  0
    1.4075    7.0709   -3.3157 C   0  0  0  0  0  0  0  0  0  0  0  0
    3.2683    9.6027   -2.5365 C   0  0  0  0  0  0  0  0  0  0  0  0
   -6.6606   16.6742   -5.0305 C   0  0  0  0  0  0  0  0  0  0  0  0
   -2.1258   12.1261   -2.6427 C   0  0  0  0  0  0  0  0  0  0  0  0
    1.3113    5.3622   -5.0473 C   0  0  0  0  0  0  0  0  0  0  0  0
    5.2710   10.6985   -3.3824 C   0  0  0  0  0  0  0  0  0  0  0  0
   -6.6119   16.7809   -3.6330 C   0  0  0  0  0  0  0  0  0  0  0  0
   -2.6431   12.8546   -1.5585 C   0  0  0  0  0  0  0  0  0  0  0  0
    0.8461    5.9041   -3.8402 C   0  0  0  0  0  0  0  0  0  0  0  0
    4.2822   10.5525   -2.3969 C   0  0  0  0  0  0  0  0  0  0  0  0
    6.0733    1.0458    0.7804 C   0  0  0  0  0  0  0  0  0  0  0  0
    6.2662    0.0317    1.8853 C   0  0  0  0  0  0  0  0  0  0  0  0
  1  3  1  0  0  0  0
  1  5  1  0  0  0  0
  1 15  1  0  0  0  0
  1 16  1  0  0  0  0
  2  4  1  0  0  0  0
  2  6  1  0  0  0  0
  2 17  1  0  0  0  0
  2 18  1  0  0  0  0
  3  9  1  0  0  0  0
  3 10  1  0  0  0  0
  4 11  1  0  0  0  0
  4 12  1  0  0  0  0
  5  7  1  0  0  0  0
  6  8  1  0  0  0  0
  7 13  1  0  0  0  0
  8 14  1  0  0  0  0
  9 19  2  0  0  0  0
  9 23  1  0  0  0  0
 10 20  2  0  0  0  0
 10 24  1  0  0  0  0
 11 21  2  0  0  0  0
 11 25  1  0  0  0  0
 12 22  2  0  0  0  0
 12 26  1  0  0  0  0
 13 14  1  0  0  0  0
 19 20  1  0  0  0  0
 19 27  1  0  0  0  0
 20 28  1  0  0  0  0
 21 22  1  0  0  0  0
 21 29  1  0  0  0  0
 22 30  1  0  0  0  0
 23 31  2  0  0  0  0
 24 32  2  0  0  0  0
 25 33  2  0  0  0  0
 26 34  2  0  0  0  0
 27 35  2  0  0  0  0
 28 36  2  0  0  0  0
 29 37  2  0  0  0  0
 30 38  2  0  0  0  0
 31 35  1  0  0  0  0
 32 36  1  0  0  0  0
 33 37  1  0  0  0  0
 34 38  1  0  0  0  0
 39 40  1  0  0  0  0
M  CHG  2   1   1   2   1
M  END
