
 OpenBabel10141417593D

 24 24  0  0  0  0  0  0  0  0999 V2000
    8.9205   -0.7187   -1.5044 C   0  0  0  0  0  0  0  0  0  0  0  0
    3.9320    1.0797    6.6216 C   0  0  0  0  0  0  0  0  0  0  0  0
    6.3751    5.0579    1.2042 C   0  0  0  0  0  0  0  0  0  0  0  0
    7.8028   -1.7924   10.0165 C   0  0  0  0  0  0  0  0  0  0  0  0
   11.7098    2.9709    5.3007 C   0  0  0  0  0  0  0  0  0  0  0  0
    7.9187    0.3847   -1.1785 C   0  0  0  0  0  0  0  0  0  0  0  0
    3.9897   -0.0681    7.6178 C   0  0  0  0  0  0  0  0  0  0  0  0
    6.4370    3.9296    2.2320 C   0  0  0  0  0  0  0  0  0  0  0  0
    7.1368   -1.9014    8.6491 C   0  0  0  0  0  0  0  0  0  0  0  0
    8.2199    1.0349    0.1743 C   0  0  0  0  0  0  0  0  0  0  0  0
    4.8554    0.2401    8.8445 C   0  0  0  0  0  0  0  0  0  0  0  0
    7.1996    2.1290    0.5552 C   0  0  0  0  0  0  0  0  0  0  0  0
    6.3317    0.5446    8.5361 C   0  0  0  0  0  0  0  0  0  0  0  0
    7.5038    1.7633    3.0694 C   0  0  0  0  0  0  0  0  0  0  0  0
    8.5173   -0.1772    7.3679 C   0  0  0  0  0  0  0  0  0  0  0  0
    9.4541    2.5774    4.2492 C   0  0  0  0  0  0  0  0  0  0  0  0
   10.0756    1.3050    6.2891 C   0  0  0  0  0  0  0  0  0  0  0  0
    7.9521    0.9174    5.2533 C   0  0  0  0  0  0  0  0  0  0  0  0
    7.4785    2.8224    1.9248 C   0  0  3  0  0  0  0  0  0  0  0  0
    7.0876   -0.5940    7.8146 C   0  0  3  0  0  0  0  0  0  0  0  0
   10.2384    2.6661    5.5813 C   0  0  3  0  0  0  0  0  0  0  0  0
    9.6919    3.7480    6.4387 N   0  0  0  0  0  0  0  0  0  0  0  0
    8.0520    2.1288    4.4046 N   0  0  0  0  0  0  0  0  0  0  0  0
    8.6409    1.0464    6.5416 N   0  0  0  0  0  0  0  0  0  0  0  0
  6  1  1  0  0  0  0
  7  2  1  0  0  0  0
  8  3  1  0  0  0  0
  9  4  1  0  0  0  0
 10  6  1  0  0  0  0
 11  7  1  0  0  0  0
 12 10  1  0  0  0  0
 13 11  1  0  0  0  0
 19  8  1  0  0  0  0
 19 12  1  0  0  0  0
 19 14  1  0  0  0  0
 20  9  1  0  0  0  0
 20 13  1  0  0  0  0
 20 15  1  0  0  0  0
 21  5  1  0  0  0  0
 21 16  1  0  0  0  0
 21 17  1  0  0  0  0
 22 21  1  0  0  0  0
 23 14  1  0  0  0  0
 23 16  1  0  0  0  0
 23 18  1  0  0  0  0
 24 15  1  0  0  0  0
 24 17  1  0  0  0  0
 24 18  1  0  0  0  0
M  END
