473
 OpenBabel10141417503D

 19 20  0  0  1  0  0  0  0  0999 V2000
   -0.7705   -0.3132    0.2136 O   0  0  0  0  0  0  0  0  0  0  0  0
    0.0883    0.3417    2.2528 O   0  0  0  0  0  0  0  0  0  0  0  0
    2.0109   -2.8251   -0.0783 N   0  0  0  0  0  0  0  0  0  0  0  0
    3.2299   -2.1361    0.3735 C   0  0  0  0  0  0  0  0  0  0  0  0
    4.4458   -2.9703   -0.0694 C   0  0  0  0  0  0  0  0  0  0  0  0
    3.3176   -1.8963    1.8916 C   0  0  0  0  0  0  0  0  0  0  0  0
    4.6006   -4.2752    0.7166 C   0  0  0  0  0  0  0  0  0  0  0  0
    3.4138   -3.1955    2.6885 C   0  0  0  0  0  0  0  0  0  0  0  0
    4.5937   -4.0465    2.2266 C   0  0  0  0  0  0  0  0  0  0  0  0
    0.7612   -2.1618    0.2876 C   0  0  0  0  0  0  0  0  0  0  0  0
    0.5324   -0.7306   -0.2447 C   0  0  3  0  0  0  0  0  0  0  0  0
    0.5085   -0.6808   -1.7722 C   0  0  0  0  0  0  0  0  0  0  0  0
   -0.8436    0.0940    1.5077 C   0  0  0  0  0  0  0  0  0  0  0  0
   -2.2765    0.0770    1.9176 C   0  0  0  0  0  0  0  0  0  0  0  0
   -2.5928    0.3166    3.2614 C   0  0  0  0  0  0  0  0  0  0  0  0
   -3.3067   -0.2307    1.0137 C   0  0  0  0  0  0  0  0  0  0  0  0
   -3.9245    0.2832    3.6836 C   0  0  0  0  0  0  0  0  0  0  0  0
   -4.6348   -0.2629    1.4396 C   0  0  0  0  0  0  0  0  0  0  0  0
   -4.9431    0.0009    2.7698 C   0  0  0  0  0  0  0  0  0  0  0  0
  1 11  1  0  0  0  0
  1 13  1  0  0  0  0
  2 13  2  0  0  0  0
  3  4  1  0  0  0  0
  3 10  1  0  0  0  0
  4  5  1  0  0  0  0
  4  6  1  0  0  0  0
  5  7  1  0  0  0  0
  6  8  1  0  0  0  0
  7  9  1  0  0  0  0
  8  9  1  0  0  0  0
 10 11  1  0  0  0  0
 11 12  1  0  0  0  0
 13 14  1  0  0  0  0
 14 15  2  0  0  0  0
 14 16  1  0  0  0  0
 15 17  1  0  0  0  0
 16 18  2  0  0  0  0
 17 19  2  0  0  0  0
 18 19  1  0  0  0  0
M  END
