667
 OpenBabel10141417523D

 18 16  0  0  0  0  0  0  0  0999 V2000
    1.0950   -0.0308    0.0051 P   0  0  0  0  0  0  0  0  0  0  0  0
    1.0625    0.0781    0.0010 P   0  0  0  0  0  0  0  0  0  0  0  0
    0.9967   -1.4710   -1.3105 O   0  0  0  0  0  0  0  0  0  0  0  0
    1.0095   -1.4105    1.3844 O   0  0  0  0  0  0  0  0  0  0  0  0
   -0.6350   -0.0308    0.0051 O   0  0  0  0  0  0  0  0  0  0  0  0
    0.9659    1.5291    1.3036 O   0  0  0  0  0  0  0  0  0  0  0  0
    0.9646    1.4314   -1.4019 O   0  0  0  0  0  0  0  0  0  0  0  0
   -0.6675    0.0781    0.0010 O   0  0  0  0  0  0  0  0  0  0  0  0
    2.6393   -0.0308    0.0051 O   0  0  0  0  0  0  0  0  0  0  0  0
    2.6067    0.0781    0.0010 O   0  0  0  0  0  0  0  0  0  0  0  0
   -3.1178   -0.5600    1.4971 N   0  0  0  0  0  0  0  0  0  0  0  0
   -3.4983   -5.1833   -0.3133 N   0  0  0  0  0  0  0  0  0  0  0  0
   -5.1930   -0.1493    2.1498 N   0  0  0  0  0  0  0  0  0  0  0  0
   -3.2016   -2.8823    0.5496 C   0  0  0  0  0  0  0  0  0  0  0  0
   -3.8337   -1.6969    1.1976 C   0  0  0  0  0  0  0  0  0  0  0  0
   -4.1725   -4.0466    0.3155 C   0  0  0  0  0  0  0  0  0  0  0  0
   -5.1156   -1.4112    1.6217 C   0  0  0  0  0  0  0  0  0  0  0  0
   -3.9792    0.3400    2.0546 C   0  0  0  0  0  0  0  0  0  0  0  0
  1  3  1  0  0  0  0
  1  4  1  0  0  0  0
  1  5  1  0  0  0  0
  1  9  2  0  0  0  0
  2  6  1  0  0  0  0
  2  7  1  0  0  0  0
  2  8  1  0  0  0  0
  2 10  2  0  0  0  0
 11 15  1  0  0  0  0
 11 18  1  0  0  0  0
 12 16  1  0  0  0  0
 13 17  1  0  0  0  0
 13 18  2  0  0  0  0
 14 15  1  0  0  0  0
 14 16  1  0  0  0  0
 15 17  2  0  0  0  0
M  END
