741
 OpenBabel10141417513D

 26 29  0  0  1  0  0  0  0  0999 V2000
    6.4159  -13.6952  -12.7229 O   0  0  0  0  0  0  0  0  0  0  0  0
    5.9288  -11.6802   -7.3831 O   0  0  0  0  0  0  0  0  0  0  0  0
    6.3925  -15.5820  -10.9603 O   0  0  0  0  0  0  0  0  0  0  0  0
    3.4226  -16.5687  -11.4502 O   0  0  0  0  0  0  0  0  0  0  0  0
    4.4530   -5.8978   -6.0636 O   0  0  0  0  0  0  0  0  0  0  0  0
    5.2293  -12.3791  -11.0065 C   0  0  1  0  0  0  0  0  0  0  0  0
    3.7206  -12.1465  -10.8403 C   0  0  2  0  0  0  0  0  0  0  0  0
    3.2975  -10.9076  -10.0399 C   0  0  1  0  0  0  0  0  0  0  0  0
    3.9793  -10.9107   -8.6310 C   0  0  1  0  0  0  0  0  0  0  0  0
    5.2400  -13.6750  -11.8886 C   0  0  1  0  0  0  0  0  0  0  0  0
    5.8176  -12.5021   -9.5974 C   0  0  0  0  0  0  0  0  0  0  0  0
    3.6200   -9.5868   -7.8378 C   0  0  2  0  0  0  0  0  0  0  0  0
    5.4951  -11.2918   -8.6905 C   0  0  2  0  0  0  0  0  0  0  0  0
    3.1391  -12.3958  -12.2260 C   0  0  0  0  0  0  0  0  0  0  0  0
    4.0210  -13.5092  -12.8225 C   0  0  0  0  0  0  0  0  0  0  0  0
    3.3254   -9.5553  -10.7754 C   0  0  0  0  0  0  0  0  0  0  0  0
    5.9708  -11.2447  -11.7552 C   0  0  0  0  0  0  0  0  0  0  0  0
    4.0229   -8.3438   -8.6214 C   0  0  0  0  0  0  0  0  0  0  0  0
    4.1416   -8.4447  -10.1173 C   0  0  0  0  0  0  0  0  0  0  0  0
    4.3065   -9.5230   -6.4460 C   0  0  0  0  0  0  0  0  0  0  0  0
    2.0797   -9.5382   -7.6181 C   0  0  0  0  0  0  0  0  0  0  0  0
    5.2972  -15.0198  -11.1169 C   0  0  0  0  0  0  0  0  0  0  0  0
    4.0284   -8.2282   -5.6844 C   0  0  0  0  0  0  0  0  0  0  0  0
    4.3218   -7.1769   -8.0203 C   0  0  0  0  0  0  0  0  0  0  0  0
    4.2912   -7.0147   -6.5450 C   0  0  0  0  0  0  0  0  0  0  0  0
    4.0361  -15.6637  -10.5554 C   0  0  0  0  0  0  0  0  0  0  0  0
  3 22  2  0  0  0  0
  4 26  1  0  0  0  0
  5 25  2  0  0  0  0
  6  7  1  0  0  0  0
  6 10  1  0  0  0  0
  6 11  1  0  0  0  0
  6 17  1  1  0  0  0
  7  8  1  0  0  0  0
  7 14  1  1  0  0  0
  8 16  1  6  0  0  0
  9  8  1  1  0  0  0
  9 12  1  0  0  0  0
  9 13  1  0  0  0  0
 10 15  1  0  0  0  0
 10 22  1  1  0  0  0
 10  1  1  0  0  0  0
 11 13  1  0  0  0  0
 12 18  1  0  0  0  0
 12 20  1  0  0  0  0
 12 21  1  1  0  0  0
 13  2  1  1  0  0  0
 14 15  1  0  0  0  0
 16 19  1  0  0  0  0
 18 19  1  0  0  0  0
 18 24  2  0  0  0  0
 20 23  1  0  0  0  0
 22 26  1  0  0  0  0
 23 25  1  0  0  0  0
 24 25  1  0  0  0  0
M  END
