557
 OpenBabel10141417483D

 26 28  0  0  1  0  0  0  0  0999 V2000
   12.2421   -1.5214   -8.1534 Cl  0  0  0  0  0  0  0  0  0  0  0  0
    7.1142    2.9287    0.3525 O   0  0  0  0  0  0  0  0  0  0  0  0
    4.4168    1.7919    0.8210 O   0  0  0  0  0  0  0  0  0  0  0  0
    8.5899    2.4387   -4.0523 N   0  0  0  0  0  0  0  0  0  0  0  0
    9.4690    3.8848   -1.5178 N   0  0  0  0  0  0  0  0  0  0  0  0
    7.6407    3.0387   -3.0723 C   0  0  0  0  0  0  0  0  0  0  0  0
    9.9899    2.4488   -3.5487 C   0  0  0  0  0  0  0  0  0  0  0  0
    8.1713    4.1715   -2.1556 C   0  0  0  0  0  0  0  0  0  0  0  0
   10.4018    3.6305   -2.6372 C   0  0  0  0  0  0  0  0  0  0  0  0
    8.1657    1.0361   -4.4118 C   0  0  3  0  0  0  0  0  0  0  0  0
    9.3997    2.7326   -0.5835 C   0  0  0  0  0  0  0  0  0  0  0  0
    9.1433    0.3496   -5.3989 C   0  0  0  0  0  0  0  0  0  0  0  0
    6.6748    0.8936   -4.8180 C   0  0  0  0  0  0  0  0  0  0  0  0
    8.5122    2.9178    0.6704 C   0  0  0  0  0  0  0  0  0  0  0  0
   10.1147   -0.5456   -4.9081 C   0  0  0  0  0  0  0  0  0  0  0  0
    9.1720    0.6470   -6.7697 C   0  0  0  0  0  0  0  0  0  0  0  0
    5.8300    0.0374   -4.0913 C   0  0  0  0  0  0  0  0  0  0  0  0
    6.0964    1.6271   -5.8708 C   0  0  0  0  0  0  0  0  0  0  0  0
   11.0793   -1.1159   -5.7498 C   0  0  0  0  0  0  0  0  0  0  0  0
   10.1081    0.0417   -7.6246 C   0  0  0  0  0  0  0  0  0  0  0  0
    4.4670   -0.0874   -4.3922 C   0  0  0  0  0  0  0  0  0  0  0  0
    4.7348    1.4855   -6.1861 C   0  0  0  0  0  0  0  0  0  0  0  0
   11.0614   -0.8249   -7.1114 C   0  0  0  0  0  0  0  0  0  0  0  0
    3.9217    0.6420   -5.4503 C   0  0  0  0  0  0  0  0  0  0  0  0
    6.3163    3.1442    1.5237 C   0  0  0  0  0  0  0  0  0  0  0  0
    4.8236    3.1075    1.1913 C   0  0  0  0  0  0  0  0  0  0  0  0
  1 23  1  0  0  0  0
  2 14  1  0  0  0  0
  2 25  1  0  0  0  0
  3 26  1  0  0  0  0
  4  6  1  0  0  0  0
  4  7  1  0  0  0  0
  4 10  1  0  0  0  0
  5  8  1  0  0  0  0
  5  9  1  0  0  0  0
  5 11  1  0  0  0  0
  6  8  1  0  0  0  0
  7  9  1  0  0  0  0
 10 12  1  0  0  0  0
 10 13  1  0  0  0  0
 11 14  1  0  0  0  0
 12 15  2  0  0  0  0
 12 16  1  0  0  0  0
 13 17  2  0  0  0  0
 13 18  1  0  0  0  0
 15 19  1  0  0  0  0
 16 20  2  0  0  0  0
 17 21  1  0  0  0  0
 18 22  2  0  0  0  0
 19 23  2  0  0  0  0
 20 23  1  0  0  0  0
 21 24  2  0  0  0  0
 22 24  1  0  0  0  0
 25 26  1  0  0  0  0
M  END
