710
 OpenBabel10141417563D

 19 18  0  0  1  0  0  0  0  0999 V2000
    2.9069   -0.1272    0.9416 P   0  0  0  0  0  0  0  0  0  0  0  0
    5.6858    1.0864    0.5830 P   0  0  0  0  0  0  0  0  0  0  0  0
    4.9681   -0.5460    2.5403 O   0  0  0  0  0  0  0  0  0  0  0  0
    2.1785   -1.4414    1.5157 O   0  0  0  0  0  0  0  0  0  0  0  0
    2.4881    0.9229    2.0876 O   0  0  0  0  0  0  0  0  0  0  0  0
    5.2371    2.3107    1.5209 O   0  0  0  0  0  0  0  0  0  0  0  0
    7.1778    0.8623    1.1417 O   0  0  0  0  0  0  0  0  0  0  0  0
    2.3396    0.2629   -0.3741 O   0  0  0  0  0  0  0  0  0  0  0  0
    5.7181    1.4978   -0.8444 O   0  0  0  0  0  0  0  0  0  0  0  0
    5.4023   -2.7690   -1.8911 N   0  0  0  0  0  0  0  0  0  0  0  0
    4.7078   -0.3720    1.1130 C   0  0  0  0  0  0  0  0  0  0  0  0
    5.2135   -1.6502    0.4107 C   0  0  0  0  0  0  0  0  0  0  0  0
    4.9753   -1.5972   -1.1030 C   0  0  0  0  0  0  0  0  0  0  0  0
    5.1185   -2.5212   -3.3324 C   0  0  0  0  0  0  0  0  0  0  0  0
    3.6209   -2.3499   -3.6773 C   0  0  0  0  0  0  0  0  0  0  0  0
    3.4197   -1.9876   -5.1549 C   0  0  0  0  0  0  0  0  0  0  0  0
    6.8440   -3.0102   -1.7151 C   0  0  0  0  0  0  0  0  0  0  0  0
    1.9408   -1.7871   -5.5041 C   0  0  0  0  0  0  0  0  0  0  0  0
    1.7501   -1.4091   -6.9673 C   0  0  0  0  0  0  0  0  0  0  0  0
  1  4  1  0  0  0  0
  1  5  1  0  0  0  0
  1  8  2  0  0  0  0
  1 11  1  0  0  0  0
  2  6  1  0  0  0  0
  2  7  1  0  0  0  0
  2  9  2  0  0  0  0
  2 11  1  0  0  0  0
  3 11  1  0  0  0  0
 10 13  1  0  0  0  0
 10 14  1  0  0  0  0
 10 17  1  0  0  0  0
 11 12  1  0  0  0  0
 12 13  1  0  0  0  0
 14 15  1  0  0  0  0
 15 16  1  0  0  0  0
 16 18  1  0  0  0  0
 18 19  1  0  0  0  0
M  END
