
 OpenBabel10141418013D

 17 18  0  0  0  0  0  0  0  0999 V2000
    1.9407    0.0711   -0.9874 O   0  0  0  0  0  0  0  0  0  0  0  0
    3.6967    2.5638    2.0026 N   0  0  0  0  0  0  0  0  0  0  0  0
    4.4696    1.6071    2.5487 N   0  0  0  0  0  0  0  0  0  0  0  0
    3.0814    0.6601    0.9779 C   0  0  0  0  0  0  0  0  0  0  0  0
    4.8408   -0.7907    2.3795 C   0  0  0  0  0  0  0  0  0  0  0  0
    4.1089    0.4620    1.9601 C   0  0  0  0  0  0  0  0  0  0  0  0
    2.8818    2.0419    0.9973 C   0  0  0  0  0  0  0  0  0  0  0  0
    2.1422   -1.7435    0.5756 C   0  0  0  0  0  0  0  0  0  0  0  0
    2.3652   -0.2903    0.1070 C   0  0  0  0  0  0  0  0  0  0  0  0
    6.0802   -1.0258    1.5133 C   0  0  0  0  0  0  0  0  0  0  0  0
    5.2387   -0.7898    3.8609 C   0  0  0  0  0  0  0  0  0  0  0  0
    2.0501    2.9745    0.2951 C   0  0  0  0  0  0  0  0  0  0  0  0
    1.3300   -1.7956    1.8699 C   0  0  0  0  0  0  0  0  0  0  0  0
    1.4421   -2.6131   -0.4731 C   0  0  0  0  0  0  0  0  0  0  0  0
    3.6730    3.9086    2.3749 C   0  0  0  0  0  0  0  0  0  0  0  0
    2.0350    4.2732    0.6608 C   0  0  0  0  0  0  0  0  0  0  0  0
    2.8588    4.7708    1.7484 C   0  0  0  0  0  0  0  0  0  0  0  0
  1  9  2  0  0  0  0
  2  3  1  0  0  0  0
  2  7  1  0  0  0  0
  2 15  1  0  0  0  0
  3  6  2  0  0  0  0
  4  6  1  0  0  0  0
  4  7  2  0  0  0  0
  4  9  1  0  0  0  0
  5  6  1  0  0  0  0
  5 10  1  0  0  0  0
  5 11  1  0  0  0  0
  7 12  1  0  0  0  0
  8  9  1  0  0  0  0
  8 13  1  0  0  0  0
  8 14  1  0  0  0  0
 12 16  2  0  0  0  0
 15 17  2  0  0  0  0
 16 17  1  0  0  0  0
M  END
