1050
 OpenBabel10141417503D

 15 15  0  0  1  0  0  0  0  0999 V2000
    5.3546   -1.2616    0.5319 O   0  0  0  0  0  0  0  0  0  0  0  0
    4.7894    0.2069    2.1309 O   0  0  0  0  0  0  0  0  0  0  0  0
    1.1883   -7.2890   -0.1291 C   0  0  0  0  0  0  0  0  0  0  0  0
    2.2289   -6.4182   -0.8617 C   0  0  0  0  0  0  0  0  0  0  0  0
    2.3500   -4.9916   -0.3755 C   0  0  0  0  0  0  0  0  0  0  0  0
    2.7198   -2.3223    0.4833 C   0  0  0  0  0  0  0  0  0  0  0  0
    2.9807   -0.8855    0.9189 C   0  0  3  0  0  0  0  0  0  0  0  0
   -0.2308   -6.7329   -0.2579 C   0  0  0  0  0  0  0  0  0  0  0  0
    1.2302   -8.7170   -0.6828 C   0  0  0  0  0  0  0  0  0  0  0  0
    2.1556   -3.9219   -1.2594 C   0  0  0  0  0  0  0  0  0  0  0  0
    2.7118   -4.7112    0.9465 C   0  0  0  0  0  0  0  0  0  0  0  0
    2.3332   -2.6014   -0.8350 C   0  0  0  0  0  0  0  0  0  0  0  0
    2.8964   -3.3932    1.3710 C   0  0  0  0  0  0  0  0  0  0  0  0
    2.0490   -0.4926    2.0689 C   0  0  0  0  0  0  0  0  0  0  0  0
    4.4396   -0.6037    1.2858 C   0  0  0  0  0  0  0  0  0  0  0  0
  1 15  1  0  0  0  0
  2 15  2  0  0  0  0
  3  4  1  0  0  0  0
  3  8  1  0  0  0  0
  3  9  1  0  0  0  0
  4  5  1  0  0  0  0
  5 10  2  0  0  0  0
  5 11  1  0  0  0  0
  6  7  1  0  0  0  0
  6 12  2  0  0  0  0
  6 13  1  0  0  0  0
  7 14  1  0  0  0  0
  7 15  1  0  0  0  0
 10 12  1  0  0  0  0
 11 13  2  0  0  0  0
M  END
