1177
 OpenBabel10141417483D

 36 40  0  0  1  0  0  0  0  0999 V2000
    0.5533   -2.4077   -0.2082 O   0  0  0  0  0  0  0  0  0  0  0  0
    2.2255   -1.0330   -1.1491 O   0  0  0  0  0  0  0  0  0  0  0  0
   -1.5674   -3.8154    0.5169 O   0  0  0  0  0  0  0  0  0  0  0  0
    0.0296    0.2758   -3.8732 O   0  0  0  0  0  0  0  0  0  0  0  0
    3.4960   -1.3733    1.8433 O   0  0  0  0  0  0  0  0  0  0  0  0
    2.1038   -6.6943    2.2542 O   0  0  0  0  0  0  0  0  0  0  0  0
   -2.0383   -4.0434    4.0253 O   0  0  0  0  0  0  0  0  0  0  0  0
    5.9327   -2.1482    2.1612 O   0  0  0  0  0  0  0  0  0  0  0  0
    4.7528   -7.2134    2.4067 O   0  0  0  0  0  0  0  0  0  0  0  0
    0.3260   -2.2472   -4.6193 N   0  0  0  0  0  0  0  0  0  0  0  0
    0.8488   -2.0842    1.1783 C   0  0  1  0  0  0  0  0  0  0  0  0
   -1.0484   -3.6217    1.8412 C   0  0  2  0  0  0  0  0  0  0  0  0
   -0.4588   -2.2051    1.9597 C   0  0  0  0  0  0  0  0  0  0  0  0
   -0.0199   -4.7514    2.1106 C   0  0  0  0  0  0  0  0  0  0  0  0
    1.8431   -3.0669    1.7602 C   0  0  0  0  0  0  0  0  0  0  0  0
    1.4528   -4.3975    1.9936 C   0  0  0  0  0  0  0  0  0  0  0  0
    1.6869   -2.3421   -1.0842 C   0  0  2  0  0  0  0  0  0  0  0  0
    1.3094   -2.9076   -2.4522 C   0  0  0  0  0  0  0  0  0  0  0  0
    0.2643   -2.0441   -3.1536 C   0  0  1  0  0  0  0  0  0  0  0  0
    0.3794   -0.5548   -2.7595 C   0  0  1  0  0  0  0  0  0  0  0  0
    1.7560   -0.1745   -2.1885 C   0  0  2  0  0  0  0  0  0  0  0  0
    3.1889   -2.7065    1.8976 C   0  0  0  0  0  0  0  0  0  0  0  0
   -2.2155   -3.7135    2.8493 C   0  0  0  0  0  0  0  0  0  0  0  0
    2.4559   -5.3787    2.1404 C   0  0  0  0  0  0  0  0  0  0  0  0
    4.1746   -3.6903    2.0139 C   0  0  0  0  0  0  0  0  0  0  0  0
    3.8183   -5.0376    2.0810 C   0  0  0  0  0  0  0  0  0  0  0  0
    2.8629   -0.0310   -3.2335 C   0  0  0  0  0  0  0  0  0  0  0  0
   -3.5849   -3.2870    2.3815 C   0  0  0  0  0  0  0  0  0  0  0  0
    5.5939   -3.3014    1.9239 C   0  0  0  0  0  0  0  0  0  0  0  0
    4.9026   -6.0609    2.0383 C   0  0  0  0  0  0  0  0  0  0  0  0
    6.5582   -4.3021    1.4508 C   0  0  0  0  0  0  0  0  0  0  0  0
    6.2163   -5.6497    1.4925 C   0  0  0  0  0  0  0  0  0  0  0  0
    7.7828   -3.8928    0.9137 C   0  0  0  0  0  0  0  0  0  0  0  0
    7.1074   -6.6065    0.9966 C   0  0  0  0  0  0  0  0  0  0  0  0
    8.6610   -4.8463    0.3999 C   0  0  0  0  0  0  0  0  0  0  0  0
    8.3242   -6.2007    0.4417 C   0  0  0  0  0  0  0  0  0  0  0  0
  2 17  1  0  0  0  0
  2 21  1  0  0  0  0
  5 22  1  0  0  0  0
  6 24  1  0  0  0  0
  7 23  2  0  0  0  0
  8 29  2  0  0  0  0
  9 30  2  0  0  0  0
 11 13  1  0  0  0  0
 11 15  1  0  0  0  0
 11  1  1  6  0  0  0
 12 13  1  0  0  0  0
 12 14  1  0  0  0  0
 12 23  1  1  0  0  0
 12  3  1  0  0  0  0
 14 16  1  0  0  0  0
 15 16  2  0  0  0  0
 15 22  1  0  0  0  0
 16 24  1  0  0  0  0
 17  1  1  1  0  0  0
 17 18  1  0  0  0  0
 18 19  1  0  0  0  0
 19 20  1  0  0  0  0
 19 10  1  6  0  0  0
 20 21  1  0  0  0  0
 20  4  1  6  0  0  0
 21 27  1  6  0  0  0
 22 25  2  0  0  0  0
 23 28  1  0  0  0  0
 24 26  2  0  0  0  0
 25 26  1  0  0  0  0
 25 29  1  0  0  0  0
 26 30  1  0  0  0  0
 29 31  1  0  0  0  0
 30 32  1  0  0  0  0
 31 32  1  0  0  0  0
 31 33  2  0  0  0  0
 32 34  2  0  0  0  0
 33 35  1  0  0  0  0
 34 36  1  0  0  0  0
 35 36  2  0  0  0  0
M  END
