249
 OpenBabel10141417493D

 17 18  0  0  1  0  0  0  0  0999 V2000
    0.4428    2.6006    0.0618 I   0  0  0  0  0  0  0  0  0  0  0  0
    5.6954    3.8040    0.1337 O   0  0  0  0  0  0  0  0  0  0  0  0
    6.7343    4.9460   -3.1111 O   0  0  0  0  0  0  0  0  0  0  0  0
    3.7901    5.8133   -0.8026 O   0  0  0  0  0  0  0  0  0  0  0  0
    5.8159   -0.2125   -0.6833 O   0  0  0  0  0  0  0  0  0  0  0  0
    1.3689   -0.5408    0.0110 O   0  0  0  0  0  0  0  0  0  0  0  0
    4.6279    1.7596   -0.4659 N   0  0  0  0  0  0  0  0  0  0  0  0
    3.5892   -0.3280   -0.3517 N   0  0  0  0  0  0  0  0  0  0  0  0
    5.8954    4.2755   -2.1816 C   0  0  1  0  0  0  0  0  0  0  0  0
    5.8599    2.5465   -0.5470 C   0  0  1  0  0  0  0  0  0  0  0  0
    6.3189    2.8418   -1.9713 C   0  0  0  0  0  0  0  0  0  0  0  0
    6.0410    4.8592   -0.7829 C   0  0  1  0  0  0  0  0  0  0  0  0
    5.1684    6.0946   -0.5516 C   0  0  0  0  0  0  0  0  0  0  0  0
    4.7538    0.3774   -0.5129 C   0  0  0  0  0  0  0  0  0  0  0  0
    3.3905    2.3654   -0.3277 C   0  0  0  0  0  0  0  0  0  0  0  0
    2.2509    1.6784   -0.1759 C   0  0  0  0  0  0  0  0  0  0  0  0
    2.3395    0.1946   -0.1589 C   0  0  0  0  0  0  0  0  0  0  0  0
  1 16  1  0  0  0  0
  2 10  1  0  0  0  0
  2 12  1  0  0  0  0
  4 13  1  0  0  0  0
  5 14  2  0  0  0  0
  6 17  2  0  0  0  0
  7 14  1  0  0  0  0
  7 15  1  0  0  0  0
  8 14  1  0  0  0  0
  8 17  1  0  0  0  0
  9 11  1  0  0  0  0
  9 12  1  0  0  0  0
  9  3  1  6  0  0  0
 10  7  1  6  0  0  0
 10 11  1  0  0  0  0
 12 13  1  6  0  0  0
 15 16  2  0  0  0  0
 16 17  1  0  0  0  0
M  END
