1181
 OpenBabel10141417493D

 14 14  0  0  1  0  0  0  0  0999 V2000
    3.3179   -0.3633   -1.5535 Cl  0  0  0  0  0  0  0  0  0  0  0  0
   11.4015   -1.4181   -0.7482 Cl  0  0  0  0  0  0  0  0  0  0  0  0
    6.8658    1.4130   -1.0959 P   0  0  3  0  0  0  0  0  0  0  0  0
    7.6711    2.7816   -0.8118 O   0  0  0  0  0  0  0  0  0  0  0  0
    6.6930    1.1959   -2.5643 O   0  0  0  0  0  0  0  0  0  0  0  0
    5.4913    1.5363   -0.1997 N   0  0  0  0  0  0  0  0  0  0  0  0
    7.7161    0.2115   -0.3686 N   0  0  0  0  0  0  0  0  0  0  0  0
    5.6712    2.0596    1.1591 C   0  0  0  0  0  0  0  0  0  0  0  0
    6.4475    3.3767    1.1805 C   0  0  0  0  0  0  0  0  0  0  0  0
    7.8105    3.2140    0.5268 C   0  0  0  0  0  0  0  0  0  0  0  0
    4.2925    2.1120   -0.8336 C   0  0  0  0  0  0  0  0  0  0  0  0
    9.0640   -0.0302   -0.8830 C   0  0  0  0  0  0  0  0  0  0  0  0
    3.7144    1.3129   -2.0149 C   0  0  0  0  0  0  0  0  0  0  0  0
    9.7462   -1.1762   -0.1407 C   0  0  0  0  0  0  0  0  0  0  0  0
  1 13  1  0  0  0  0
  2 14  1  0  0  0  0
  3  4  1  0  0  0  0
  3  5  2  0  0  0  0
  3  6  1  0  0  0  0
  3  7  1  0  0  0  0
  4 10  1  0  0  0  0
  6  8  1  0  0  0  0
  6 11  1  0  0  0  0
  7 12  1  0  0  0  0
  8  9  1  0  0  0  0
  9 10  1  0  0  0  0
 11 13  1  0  0  0  0
 12 14  1  0  0  0  0
M  END
