724
 OpenBabel10141417493D

 18 20  0  0  0  0  0  0  0  0999 V2000
    1.6396    1.2003   -0.1264 N   0  0  0  0  0  0  0  0  0  0  0  0
    2.8316   -0.6762   -0.0783 N   0  0  0  0  0  0  0  0  0  0  0  0
   -0.4759   -2.3320   -0.0685 N   0  0  0  0  0  0  0  0  0  0  0  0
    1.5989   -3.4272   -0.0640 N   0  0  0  0  0  0  0  0  0  0  0  0
    1.4469    2.6356   -0.0518 C   0  0  0  0  0  0  0  0  0  0  0  0
    1.2924    3.3341   -1.4146 C   0  0  0  0  0  0  0  0  0  0  0  0
    0.7017    0.1880   -0.1431 C   0  0  0  0  0  0  0  0  0  0  0  0
   -0.7196    0.0960   -0.1662 C   0  0  0  0  0  0  0  0  0  0  0  0
    1.4845   -0.9733   -0.1131 C   0  0  0  0  0  0  0  0  0  0  0  0
    2.8872    0.6302   -0.0834 C   0  0  0  0  0  0  0  0  0  0  0  0
    1.0305    4.8263   -1.1958 C   0  0  0  0  0  0  0  0  0  0  0  0
    2.5265    3.1606   -2.3047 C   0  0  0  0  0  0  0  0  0  0  0  0
   -1.2318   -1.2253   -0.1104 C   0  0  0  0  0  0  0  0  0  0  0  0
    0.8696   -2.2427   -0.0969 C   0  0  0  0  0  0  0  0  0  0  0  0
   -1.6077    1.1943   -0.2338 C   0  0  0  0  0  0  0  0  0  0  0  0
   -2.6084   -1.3925   -0.0961 C   0  0  0  0  0  0  0  0  0  0  0  0
   -2.9864    0.9853   -0.2235 C   0  0  0  0  0  0  0  0  0  0  0  0
   -3.4870   -0.3085   -0.1485 C   0  0  0  0  0  0  0  0  0  0  0  0
  1  5  1  0  0  0  0
  1  7  1  0  0  0  0
  1 10  1  0  0  0  0
  2  9  1  0  0  0  0
  2 10  2  0  0  0  0
  3 13  1  0  0  0  0
  3 14  2  0  0  0  0
  4 14  1  0  0  0  0
  5  6  1  0  0  0  0
  6 11  1  0  0  0  0
  6 12  1  0  0  0  0
  7  8  1  0  0  0  0
  7  9  2  0  0  0  0
  8 13  1  0  0  0  0
  8 15  2  0  0  0  0
  9 14  1  0  0  0  0
 13 16  2  0  0  0  0
 15 17  1  0  0  0  0
 16 18  1  0  0  0  0
 17 18  2  0  0  0  0
M  END
