808
 OpenBabel10141417533D

 24 26  0  0  1  0  0  0  0  0999 V2000
    7.0634    0.2110    7.1474 Cl  0  0  0  0  0  0  0  0  0  0  0  0
    8.2707    2.3320    4.9220 S   0  0  0  0  0  0  0  0  0  0  0  0
    7.8103   -2.6066    1.1661 O   0  0  0  0  0  0  0  0  0  0  0  0
    9.0308    2.5032    6.1364 O   0  0  0  0  0  0  0  0  0  0  0  0
    8.6527    2.9832    3.6926 O   0  0  0  0  0  0  0  0  0  0  0  0
    9.8727   -1.4561   -0.3443 N   0  0  0  0  0  0  0  0  0  0  0  0
    9.5436   -1.0577    0.9517 N   0  0  0  0  0  0  0  0  0  0  0  0
    6.7091    2.8599    5.2208 N   0  0  0  0  0  0  0  0  0  0  0  0
   10.3153   -0.4577   -1.3515 C   0  0  3  0  0  0  0  0  0  0  0  0
   11.0049   -1.2809   -2.4717 C   0  0  0  0  0  0  0  0  0  0  0  0
   11.5071   -2.4470   -1.6834 C   0  0  0  0  0  0  0  0  0  0  0  0
   10.8185   -2.5087   -0.4647 C   0  0  0  0  0  0  0  0  0  0  0  0
   11.2959    0.5742   -0.7726 C   0  0  0  0  0  0  0  0  0  0  0  0
   12.4536   -3.3921   -2.0378 C   0  0  0  0  0  0  0  0  0  0  0  0
   11.0721   -3.5380    0.4251 C   0  0  0  0  0  0  0  0  0  0  0  0
   12.7158   -4.4240   -1.1360 C   0  0  0  0  0  0  0  0  0  0  0  0
   12.0292   -4.4977    0.0859 C   0  0  0  0  0  0  0  0  0  0  0  0
    8.4951   -1.6903    1.6086 C   0  0  0  0  0  0  0  0  0  0  0  0
    8.2182   -1.2001    2.9883 C   0  0  0  0  0  0  0  0  0  0  0  0
    8.4214    0.1403    3.3285 C   0  0  0  0  0  0  0  0  0  0  0  0
    8.0637    0.6089    4.6049 C   0  0  0  0  0  0  0  0  0  0  0  0
    7.6613   -2.0708    3.9322 C   0  0  0  0  0  0  0  0  0  0  0  0
    7.5310   -0.2634    5.5549 C   0  0  0  0  0  0  0  0  0  0  0  0
    7.3326   -1.6068    5.2116 C   0  0  0  0  0  0  0  0  0  0  0  0
  1 23  1  0  0  0  0
  2  4  2  0  0  0  0
  2  5  2  0  0  0  0
  2  8  1  0  0  0  0
  2 21  1  0  0  0  0
  3 18  2  0  0  0  0
  6  7  1  0  0  0  0
  6  9  1  0  0  0  0
  6 12  1  0  0  0  0
  7 18  1  0  0  0  0
  9 10  1  0  0  0  0
  9 13  1  0  0  0  0
 10 11  1  0  0  0  0
 11 12  1  0  0  0  0
 11 14  2  0  0  0  0
 12 15  2  0  0  0  0
 14 16  1  0  0  0  0
 15 17  1  0  0  0  0
 16 17  2  0  0  0  0
 18 19  1  0  0  0  0
 19 20  2  0  0  0  0
 19 22  1  0  0  0  0
 20 21  1  0  0  0  0
 21 23  2  0  0  0  0
 22 24  2  0  0  0  0
 23 24  1  0  0  0  0
M  END
