192
 OpenBabel10141418083D

 23 25  0  0  0  0  0  0  0  0999 V2000
    2.4765   -1.0216   -0.7718 O   0  0  0  0  0  0  0  0  0  0  0  0
    6.8046   -1.3805    2.1437 N   0  0  0  0  0  0  0  0  0  0  0  0
    1.0675    0.7049   -0.6359 N   0  0  0  0  0  0  0  0  0  0  0  0
    2.8741    0.5302    1.0809 C   0  0  0  0  0  0  0  0  0  0  0  0
    4.3507    0.0654    1.0345 C   0  0  0  0  0  0  0  0  0  0  0  0
    2.1794    0.0250    2.3558 C   0  0  0  0  0  0  0  0  0  0  0  0
    2.7654    2.0532    1.2605 C   0  0  0  0  0  0  0  0  0  0  0  0
    1.7891    1.1169    3.1614 C   0  0  0  0  0  0  0  0  0  0  0  0
    2.1305    2.3512    2.4874 C   0  0  0  0  0  0  0  0  0  0  0  0
    5.2166    0.5469    2.2080 C   0  0  0  0  0  0  0  0  0  0  0  0
    2.1519    0.0034   -0.1840 C   0  0  0  0  0  0  0  0  0  0  0  0
    6.6680    0.0792    2.1207 C   0  0  0  0  0  0  0  0  0  0  0  0
    1.9947   -1.2842    2.7811 C   0  0  0  0  0  0  0  0  0  0  0  0
    3.2327    3.0617    0.4282 C   0  0  0  0  0  0  0  0  0  0  0  0
    1.2245    0.9043    4.4087 C   0  0  0  0  0  0  0  0  0  0  0  0
    1.9488    3.6653    2.8843 C   0  0  0  0  0  0  0  0  0  0  0  0
    1.4189   -1.4957    4.0352 C   0  0  0  0  0  0  0  0  0  0  0  0
    3.0446    4.3853    0.8298 C   0  0  0  0  0  0  0  0  0  0  0  0
    1.0418   -0.4116    4.8440 C   0  0  0  0  0  0  0  0  0  0  0  0
    2.4064    4.6846    2.0447 C   0  0  0  0  0  0  0  0  0  0  0  0
    8.2080   -1.8091    2.0449 C   0  0  0  0  0  0  0  0  0  0  0  0
    9.0332   -1.3361    3.2429 C   0  0  0  0  0  0  0  0  0  0  0  0
    8.2795   -3.3358    1.9336 C   0  0  0  0  0  0  0  0  0  0  0  0
  1 11  2  0  0  0  0
  2 12  1  0  0  0  0
  2 21  1  0  0  0  0
  3 11  1  0  0  0  0
  4  5  1  0  0  0  0
  4  6  1  0  0  0  0
  4  7  1  0  0  0  0
  4 11  1  0  0  0  0
  5 10  1  0  0  0  0
  6  8  1  0  0  0  0
  6 13  2  0  0  0  0
  7  9  1  0  0  0  0
  7 14  2  0  0  0  0
  8  9  1  0  0  0  0
  8 15  2  0  0  0  0
  9 16  2  0  0  0  0
 10 12  1  0  0  0  0
 13 17  1  0  0  0  0
 14 18  1  0  0  0  0
 15 19  1  0  0  0  0
 16 20  1  0  0  0  0
 17 19  2  0  0  0  0
 18 20  2  0  0  0  0
 21 22  1  0  0  0  0
 21 23  1  0  0  0  0
M  END
