328
 OpenBabel10141417533D

 25 27  0  0  0  0  0  0  0  0999 V2000
    0.9688    0.2371    1.4816 Cl  0  0  0  0  0  0  0  0  0  0  0  0
    6.2357   -6.4706   -1.3762 O   0  0  0  0  0  0  0  0  0  0  0  0
    7.0282    1.1476   -1.1162 O   0  0  0  0  0  0  0  0  0  0  0  0
   10.6200   -2.7907   -3.0283 O   0  0  0  0  0  0  0  0  0  0  0  0
   12.4215   -3.5757   -1.9431 O   0  0  0  0  0  0  0  0  0  0  0  0
    7.3497   -1.0862   -0.8811 N   0  0  0  0  0  0  0  0  0  0  0  0
    9.1198   -2.4840   -0.7202 C   0  0  0  0  0  0  0  0  0  0  0  0
    7.9448   -3.2658   -0.9336 C   0  0  0  0  0  0  0  0  0  0  0  0
    6.8956   -2.3753   -1.1508 C   0  0  0  0  0  0  0  0  0  0  0  0
    8.7364   -1.1466   -0.7266 C   0  0  0  0  0  0  0  0  0  0  0  0
   10.5171   -3.0202   -0.5878 C   0  0  0  0  0  0  0  0  0  0  0  0
    7.6906   -4.6551   -1.0204 C   0  0  0  0  0  0  0  0  0  0  0  0
    5.6346   -2.8263   -1.5737 C   0  0  0  0  0  0  0  0  0  0  0  0
    9.5784    0.0725   -0.5233 C   0  0  0  0  0  0  0  0  0  0  0  0
    6.5321    0.0697   -0.7750 C   0  0  0  0  0  0  0  0  0  0  0  0
    6.4102   -5.1114   -1.3614 C   0  0  0  0  0  0  0  0  0  0  0  0
    5.4040   -4.1967   -1.6440 C   0  0  0  0  0  0  0  0  0  0  0  0
    5.1355    0.0704   -0.2536 C   0  0  0  0  0  0  0  0  0  0  0  0
   11.2614   -3.1537   -1.8983 C   0  0  0  0  0  0  0  0  0  0  0  0
    4.2275    1.0383   -0.7014 C   0  0  0  0  0  0  0  0  0  0  0  0
    4.7443   -0.8364    0.7418 C   0  0  0  0  0  0  0  0  0  0  0  0
    2.9347    1.0871   -0.1646 C   0  0  0  0  0  0  0  0  0  0  0  0
    3.4463   -0.8010    1.2577 C   0  0  0  0  0  0  0  0  0  0  0  0
    2.5503    0.1669    0.8097 C   0  0  0  0  0  0  0  0  0  0  0  0
    5.1800   -6.9301   -2.2193 C   0  0  0  0  0  0  0  0  0  0  0  0
  1 24  1  0  0  0  0
  2 16  1  0  0  0  0
  2 25  1  0  0  0  0
  3 15  2  0  0  0  0
  4 19  1  0  0  0  0
  5 19  2  0  0  0  0
  6  9  1  0  0  0  0
  6 10  1  0  0  0  0
  6 15  1  0  0  0  0
  7  8  1  0  0  0  0
  7 10  2  0  0  0  0
  7 11  1  0  0  0  0
  8  9  2  0  0  0  0
  8 12  1  0  0  0  0
  9 13  1  0  0  0  0
 10 14  1  0  0  0  0
 11 19  1  0  0  0  0
 12 16  2  0  0  0  0
 13 17  2  0  0  0  0
 15 18  1  0  0  0  0
 16 17  1  0  0  0  0
 18 20  2  0  0  0  0
 18 21  1  0  0  0  0
 20 22  1  0  0  0  0
 21 23  2  0  0  0  0
 22 24  2  0  0  0  0
 23 24  1  0  0  0  0
M  END
