1249
 OpenBabel10141417513D

 62 63  0  0  1  0  0  0  0  0999 V2000
    6.5630   -0.8454    1.9718 I   0  0  0  0  0  0  0  0  0  0  0  0
   11.0166    3.0628   -2.6486 I   0  0  0  0  0  0  0  0  0  0  0  0
    2.7267    3.4024    4.0120 I   0  0  0  0  0  0  0  0  0  0  0  0
   10.8211    6.7842    0.4419 I   0  0  0  0  0  0  0  0  0  0  0  0
    6.0041   -0.8787    6.5921 I   0  0  0  0  0  0  0  0  0  0  0  0
   10.9136    1.4653    3.2868 I   0  0  0  0  0  0  0  0  0  0  0  0
    6.2145    2.3204   -1.1266 O   0  0  0  0  0  0  0  0  0  0  0  0
    3.6508    1.7944   -1.0539 O   0  0  0  0  0  0  0  0  0  0  0  0
    6.8675    6.4207   -2.1126 O   0  0  0  0  0  0  0  0  0  0  0  0
    6.2258    3.5949    5.4581 O   0  0  0  0  0  0  0  0  0  0  0  0
    9.2251    5.6950    3.3655 O   0  0  0  0  0  0  0  0  0  0  0  0
    2.0337   -0.4849    3.7348 O   0  0  0  0  0  0  0  0  0  0  0  0
   10.2627   -0.1447    0.9265 O   0  0  0  0  0  0  0  0  0  0  0  0
    6.1191    4.5072   10.2689 O   0  0  0  0  0  0  0  0  0  0  0  0
   12.2888    5.2712    7.5962 O   0  0  0  0  0  0  0  0  0  0  0  0
    1.4651   -1.6458    8.1183 O   0  0  0  0  0  0  0  0  0  0  0  0
   13.5957   -1.4541   -1.3993 O   0  0  0  0  0  0  0  0  0  0  0  0
    3.9800    5.9776    9.2002 O   0  0  0  0  0  0  0  0  0  0  0  0
   11.2483    2.6189    7.3086 O   0  0  0  0  0  0  0  0  0  0  0  0
   -0.4721    0.0801    5.5134 O   0  0  0  0  0  0  0  0  0  0  0  0
   13.2619   -3.1052    0.9041 O   0  0  0  0  0  0  0  0  0  0  0  0
    4.3041    1.8342    1.1575 N   0  0  0  0  0  0  0  0  0  0  0  0
    8.0156    4.6750   -1.1104 N   0  0  0  0  0  0  0  0  0  0  0  0
    5.5136    2.3189    7.2491 N   0  0  0  0  0  0  0  0  0  0  0  0
   11.1265    4.5914    4.0735 N   0  0  0  0  0  0  0  0  0  0  0  0
    2.7056   -1.8377    5.4587 N   0  0  0  0  0  0  0  0  0  0  0  0
   11.1192    0.2838   -1.1198 N   0  0  0  0  0  0  0  0  0  0  0  0
    6.2874    3.0878    0.0836 C   0  0  3  0  0  0  0  0  0  0  0  0
    4.8975    3.1600    0.8272 C   0  0  0  0  0  0  0  0  0  0  0  0
    6.7534    4.5069   -0.3117 C   0  0  0  0  0  0  0  0  0  0  0  0
    4.4447    1.3065    2.5162 C   0  0  0  0  0  0  0  0  0  0  0  0
    9.2830    4.3081   -0.4838 C   0  0  0  0  0  0  0  0  0  0  0  0
    3.6628    1.2313    0.0573 C   0  0  0  0  0  0  0  0  0  0  0  0
    7.9124    5.7635   -2.0014 C   0  0  0  0  0  0  0  0  0  0  0  0
    4.5209   -0.0701    2.7943 C   0  0  0  0  0  0  0  0  0  0  0  0
    9.8395    3.0296   -0.7377 C   0  0  0  0  0  0  0  0  0  0  0  0
    4.5943    2.1044    3.6731 C   0  0  0  0  0  0  0  0  0  0  0  0
    9.5960    4.8580    0.7704 C   0  0  0  0  0  0  0  0  0  0  0  0
    4.3702   -0.5708    4.1171 C   0  0  0  0  0  0  0  0  0  0  0  0
   10.3519    2.1908    0.3097 C   0  0  0  0  0  0  0  0  0  0  0  0
    5.0317    1.5966    4.9425 C   0  0  0  0  0  0  0  0  0  0  0  0
   10.1050    4.1004    1.8597 C   0  0  0  0  0  0  0  0  0  0  0  0
    4.9449    0.1999    5.1422 C   0  0  0  0  0  0  0  0  0  0  0  0
   10.3893    2.7271    1.6357 C   0  0  0  0  0  0  0  0  0  0  0  0
    2.8881   -0.0572    0.1401 C   0  0  0  0  0  0  0  0  0  0  0  0
    9.0237    6.1301   -2.9432 C   0  0  0  0  0  0  0  0  0  0  0  0
    5.6186    2.5876    5.9011 C   0  0  0  0  0  0  0  0  0  0  0  0
   10.1060    4.8144    3.1521 C   0  0  0  0  0  0  0  0  0  0  0  0
    2.9418   -0.9634    4.4217 C   0  0  0  0  0  0  0  0  0  0  0  0
   10.5642    0.7243    0.0425 C   0  0  0  0  0  0  0  0  0  0  0  0
    6.2479    3.0488    8.3131 C   0  0  0  0  0  0  0  0  0  0  0  0
   11.1043    5.0952    5.4548 C   0  0  0  0  0  0  0  0  0  0  0  0
    1.3509   -2.2984    5.7787 C   0  0  0  0  0  0  0  0  0  0  0  0
   11.1583   -1.1209   -1.5650 C   0  0  0  0  0  0  0  0  0  0  0  0
    5.3758    4.0061    9.1370 C   0  0  3  0  0  0  0  0  0  0  0  0
   12.2967    4.6128    6.3198 C   0  0  3  0  0  0  0  0  0  0  0  0
    0.6712   -1.5316    6.9289 C   0  0  3  0  0  0  0  0  0  0  0  0
   12.3150   -1.9834   -1.0210 C   0  0  3  0  0  0  0  0  0  0  0  0
    4.8391    5.2049    8.3534 C   0  0  0  0  0  0  0  0  0  0  0  0
   12.3407    3.0857    6.5250 C   0  0  0  0  0  0  0  0  0  0  0  0
    0.3988   -0.0564    6.6247 C   0  0  0  0  0  0  0  0  0  0  0  0
   12.2699   -2.1594    0.4940 C   0  0  0  0  0  0  0  0  0  0  0  0
  1 35  1  0  0  0  0
  2 36  1  0  0  0  0
  3 37  1  0  0  0  0
  4 38  1  0  0  0  0
  5 43  1  0  0  0  0
  6 44  1  0  0  0  0
  7 28  1  0  0  0  0
  8 33  2  0  0  0  0
  9 34  2  0  0  0  0
 10 47  2  0  0  0  0
 11 48  2  0  0  0  0
 12 49  2  0  0  0  0
 13 50  2  0  0  0  0
 14 55  1  0  0  0  0
 15 56  1  0  0  0  0
 16 57  1  0  0  0  0
 17 58  1  0  0  0  0
 18 59  1  0  0  0  0
 19 60  1  0  0  0  0
 20 61  1  0  0  0  0
 21 62  1  0  0  0  0
 22 29  1  0  0  0  0
 22 31  1  0  0  0  0
 22 33  1  0  0  0  0
 23 30  1  0  0  0  0
 23 32  1  0  0  0  0
 23 34  1  0  0  0  0
 24 47  1  0  0  0  0
 24 51  1  0  0  0  0
 25 48  1  0  0  0  0
 25 52  1  0  0  0  0
 26 49  1  0  0  0  0
 26 53  1  0  0  0  0
 27 50  1  0  0  0  0
 27 54  1  0  0  0  0
 28 29  1  0  0  0  0
 28 30  1  0  0  0  0
 31 35  2  0  0  0  0
 31 37  1  0  0  0  0
 32 36  2  0  0  0  0
 32 38  1  0  0  0  0
 33 45  1  0  0  0  0
 34 46  1  0  0  0  0
 35 39  1  0  0  0  0
 36 40  1  0  0  0  0
 37 41  2  0  0  0  0
 38 42  2  0  0  0  0
 39 43  2  0  0  0  0
 39 49  1  0  0  0  0
 40 44  2  0  0  0  0
 40 50  1  0  0  0  0
 41 43  1  0  0  0  0
 41 47  1  0  0  0  0
 42 44  1  0  0  0  0
 42 48  1  0  0  0  0
 51 55  1  0  0  0  0
 52 56  1  0  0  0  0
 53 57  1  0  0  0  0
 54 58  1  0  0  0  0
 55 59  1  0  0  0  0
 56 60  1  0  0  0  0
 57 61  1  0  0  0  0
 58 62  1  0  0  0  0
M  END
