1187
 OpenBabel10141417503D

 22 22  0  0  1  0  0  0  0  0999 V2000
    5.0499    8.1663   -0.2182 I   0  0  0  0  0  0  0  0  0  0  0  0
   -4.3325    1.6457   -1.1185 O   0  0  0  0  0  0  0  0  0  0  0  0
   -3.5869    3.1166    0.4658 O   0  0  0  0  0  0  0  0  0  0  0  0
    2.2819    3.7228    0.9062 C   0  0  0  0  0  0  0  0  0  0  0  0
    2.3899    4.9396   -0.0692 C   0  0  0  0  0  0  0  0  0  0  0  0
    0.9184    3.3964    1.5868 C   0  0  0  0  0  0  0  0  0  0  0  0
    1.9998    6.3855    0.3610 C   0  0  3  0  0  0  0  0  0  0  0  0
    0.8936    2.0961    2.4563 C   0  0  0  0  0  0  0  0  0  0  0  0
   -0.4789    1.6891    3.1118 C   0  0  0  0  0  0  0  0  0  0  0  0
   -1.4843    1.3606    2.0059 C   0  0  0  0  0  0  0  0  0  0  0  0
    2.7515    6.9876    1.5569 C   0  0  0  0  0  0  0  0  0  0  0  0
   -2.9113    0.8640    2.2759 C   0  0  0  0  0  0  0  0  0  0  0  0
    0.4648    6.4462    0.4941 C   0  0  0  0  0  0  0  0  0  0  0  0
   -3.6352    0.7016    0.9164 C   0  0  0  0  0  0  0  0  0  0  0  0
    3.8694    7.8543    1.4963 C   0  0  0  0  0  0  0  0  0  0  0  0
    2.3116    6.6530    2.8492 C   0  0  0  0  0  0  0  0  0  0  0  0
    4.4238    8.4233    2.6631 C   0  0  0  0  0  0  0  0  0  0  0  0
    2.9684    7.0828    4.0035 C   0  0  0  0  0  0  0  0  0  0  0  0
   -3.8089    2.0036    0.1064 C   0  0  0  0  0  0  0  0  0  0  0  0
    4.0137    7.9850    3.9144 C   0  0  0  0  0  0  0  0  0  0  0  0
   -5.5330    2.3305   -1.5228 C   0  0  0  0  0  0  0  0  0  0  0  0
   -5.2963    3.3761   -2.5967 C   0  0  0  0  0  0  0  0  0  0  0  0
  1 15  1  0  0  0  0
  2 19  1  0  0  0  0
  2 21  1  0  0  0  0
  3 19  2  0  0  0  0
  4  5  1  0  0  0  0
  4  6  1  0  0  0  0
  5  7  1  0  0  0  0
  6  8  1  0  0  0  0
  7 11  1  0  0  0  0
  7 13  1  0  0  0  0
  8  9  1  0  0  0  0
  9 10  1  0  0  0  0
 10 12  1  0  0  0  0
 11 15  1  0  0  0  0
 11 16  2  0  0  0  0
 12 14  1  0  0  0  0
 14 19  1  0  0  0  0
 15 17  2  0  0  0  0
 16 18  1  0  0  0  0
 17 20  1  0  0  0  0
 18 20  2  0  0  0  0
 21 22  1  0  0  0  0
M  END
