677
 OpenBabel10141417543D

 11 10  0  0  0  0  0  0  0  0999 V2000
    0.9129    0.0207    0.0446 P   0  0  0  0  0  0  0  0  0  0  0  0
    0.8136   -0.1890   -1.5416 F   0  0  0  0  0  0  0  0  0  0  0  0
    0.7358   -1.5532    0.5391 O   0  0  0  0  0  0  0  0  0  0  0  0
   -0.8171    0.0207    0.0446 O   0  0  0  0  0  0  0  0  0  0  0  0
    2.4572    0.0207    0.0446 O   0  0  0  0  0  0  0  0  0  0  0  0
    1.6614   -2.5870    0.2523 C   0  0  0  0  0  0  0  0  0  0  0  0
   -1.3803    0.2912    1.3330 C   0  0  0  0  0  0  0  0  0  0  0  0
    1.1347   -3.8296    0.9669 C   0  0  0  0  0  0  0  0  0  0  0  0
    1.7779   -2.8648   -1.2398 C   0  0  0  0  0  0  0  0  0  0  0  0
   -0.9561    1.6665    1.8455 C   0  0  0  0  0  0  0  0  0  0  0  0
   -2.8977    0.2235    1.2192 C   0  0  0  0  0  0  0  0  0  0  0  0
  1  2  1  0  0  0  0
  1  3  1  0  0  0  0
  1  4  1  0  0  0  0
  1  5  2  0  0  0  0
  3  6  1  0  0  0  0
  4  7  1  0  0  0  0
  6  8  1  0  0  0  0
  6  9  1  0  0  0  0
  7 10  1  0  0  0  0
  7 11  1  0  0  0  0
M  END
