951
 OpenBabel10141417493D

 10 10  0  0  0  0  0  0  0  0999 V2000
    2.0753   -0.2627   -0.8903 O   0  0  0  0  0  0  0  0  0  0  0  0
    2.3989    1.4389    0.6268 N   0  0  0  0  0  0  0  0  0  0  0  0
    4.3138   -2.7037    2.8392 N   0  0  0  0  0  0  0  0  0  0  0  0
    1.7132    2.3708   -0.1837 N   0  0  0  0  0  0  0  0  0  0  0  0
    3.1504   -0.8342    1.1309 C   0  0  0  0  0  0  0  0  0  0  0  0
    4.0955   -0.4280    2.0738 C   0  0  0  0  0  0  0  0  0  0  0  0
    2.8096   -2.1838    1.0327 C   0  0  0  0  0  0  0  0  0  0  0  0
    2.5076    0.1224    0.1927 C   0  0  0  0  0  0  0  0  0  0  0  0
    4.6417   -1.3959    2.8983 C   0  0  0  0  0  0  0  0  0  0  0  0
    3.4109   -3.0711    1.9049 C   0  0  0  0  0  0  0  0  0  0  0  0
  1  8  2  0  0  0  0
  2  4  1  0  0  0  0
  2  8  1  0  0  0  0
  3  9  2  0  0  0  0
  3 10  1  0  0  0  0
  5  6  2  0  0  0  0
  5  7  1  0  0  0  0
  5  8  1  0  0  0  0
  6  9  1  0  0  0  0
  7 10  2  0  0  0  0
M  END
