1625
 OpenBabel10141417513D

 26 27  0  0  0  0  0  0  0  0999 V2000
    5.3787   -0.4521    2.0310 O   0  0  0  0  0  0  0  0  0  0  0  0
    2.1026    1.4530    4.0827 N   0  3  0  0  0  0  0  0  0  0  0  0
    5.6354   -0.1171   -0.1741 N   0  0  0  0  0  0  0  0  0  0  0  0
    2.8179    1.1895    2.6448 C   0  0  0  0  0  0  0  0  0  0  0  0
    2.3654    2.9854    4.4767 C   0  0  0  0  0  0  0  0  0  0  0  0
    0.5685    1.0583    3.9744 C   0  0  0  0  0  0  0  0  0  0  0  0
    2.6368   -0.2495    2.1144 C   0  0  0  0  0  0  0  0  0  0  0  0
    2.7922    0.5149    5.0963 C   0  0  0  0  0  0  0  0  0  0  0  0
    3.3165   -0.6350    0.7330 C   0  0  0  0  0  0  0  0  0  0  0  0
    1.7386    3.4261    5.8079 C   0  0  0  0  0  0  0  0  0  0  0  0
    3.8661    3.3162    4.5625 C   0  0  0  0  0  0  0  0  0  0  0  0
   -0.2431    1.2203    5.2616 C   0  0  0  0  0  0  0  0  0  0  0  0
   -0.1474    1.7641    2.8206 C   0  0  0  0  0  0  0  0  0  0  0  0
    2.6916    0.2830   -0.3579 C   0  0  0  0  0  0  0  0  0  0  0  0
    3.1002   -2.1783    0.4601 C   0  0  0  0  0  0  0  0  0  0  0  0
    4.8378   -0.4042    0.9078 C   0  0  0  0  0  0  0  0  0  0  0  0
    3.1875    1.5844   -0.6113 C   0  0  0  0  0  0  0  0  0  0  0  0
    2.4282   -3.0307    1.3695 C   0  0  0  0  0  0  0  0  0  0  0  0
    1.5531   -0.1146   -1.0811 C   0  0  0  0  0  0  0  0  0  0  0  0
    3.5915   -2.7890   -0.7129 C   0  0  0  0  0  0  0  0  0  0  0  0
    2.5704    2.4401   -1.5287 C   0  0  0  0  0  0  0  0  0  0  0  0
    2.2977   -4.4086    1.1491 C   0  0  0  0  0  0  0  0  0  0  0  0
    0.9512    0.7348   -2.0179 C   0  0  0  0  0  0  0  0  0  0  0  0
    3.4346   -4.1666   -0.9457 C   0  0  0  0  0  0  0  0  0  0  0  0
    1.4510    2.0156   -2.2318 C   0  0  0  0  0  0  0  0  0  0  0  0
    2.8031   -4.9788   -0.0088 C   0  0  0  0  0  0  0  0  0  0  0  0
  1 16  2  0  0  0  0
  2  4  1  0  0  0  0
  2  5  1  0  0  0  0
  2  6  1  0  0  0  0
  2  8  1  0  0  0  0
  3 16  1  0  0  0  0
  4  7  1  0  0  0  0
  5 10  1  0  0  0  0
  5 11  1  0  0  0  0
  6 12  1  0  0  0  0
  6 13  1  0  0  0  0
  7  9  1  0  0  0  0
  9 14  1  0  0  0  0
  9 15  1  0  0  0  0
  9 16  1  0  0  0  0
 14 17  2  0  0  0  0
 14 19  1  0  0  0  0
 15 18  2  0  0  0  0
 15 20  1  0  0  0  0
 17 21  1  0  0  0  0
 18 22  1  0  0  0  0
 19 23  2  0  0  0  0
 20 24  2  0  0  0  0
 21 25  2  0  0  0  0
 22 26  2  0  0  0  0
 23 25  1  0  0  0  0
 24 26  1  0  0  0  0
M  CHG  1   2   1
M  END
