883
 OpenBabel10141417503D

 16 17  0  0  1  0  0  0  0  0999 V2000
    1.3392    1.5283    0.5787 O   0  0  0  0  0  0  0  0  0  0  0  0
   -0.8759    0.6096   -1.9752 O   0  0  0  0  0  0  0  0  0  0  0  0
    2.0049    1.7477   -2.9535 O   0  0  0  0  0  0  0  0  0  0  0  0
    0.1280   -0.8561    0.2988 O   0  0  0  0  0  0  0  0  0  0  0  0
    3.6778    1.9686   -4.3671 O   0  5  0  0  0  0  0  0  0  0  0  0
    3.8991    0.5539   -2.6638 O   0  0  0  0  0  0  0  0  0  0  0  0
    0.4840   -2.8879    1.0630 O   0  5  0  0  0  0  0  0  0  0  0  0
   -1.5041   -1.9402    1.4183 O   0  0  0  0  0  0  0  0  0  0  0  0
    3.3085    1.3705   -3.3640 N   0  3  0  0  0  0  0  0  0  0  0  0
   -0.3468   -1.9845    0.9991 N   0  3  0  0  0  0  0  0  0  0  0  0
    0.1239    1.5223   -1.4871 C   0  0  1  0  0  0  0  0  0  0  0  0
    0.0280    1.5257    0.0269 C   0  0  1  0  0  0  0  0  0  0  0  0
    1.5550    1.0805   -1.7756 C   0  0  2  0  0  0  0  0  0  0  0  0
   -0.7613    0.2647    0.3490 C   0  0  1  0  0  0  0  0  0  0  0  0
    2.2761    1.5422   -0.5087 C   0  0  0  0  0  0  0  0  0  0  0  0
   -1.7019    0.2434   -0.8446 C   0  0  0  0  0  0  0  0  0  0  0  0
  1 15  1  0  0  0  0
  2 16  1  0  0  0  0
  3  9  1  0  0  0  0
  4 10  1  0  0  0  0
  5  9  1  0  0  0  0
  6  9  2  0  0  0  0
  7 10  1  0  0  0  0
  8 10  2  0  0  0  0
 11  2  1  6  0  0  0
 11 12  1  0  0  0  0
 11 13  1  0  0  0  0
 12  1  1  1  0  0  0
 12 14  1  0  0  0  0
 13 15  1  0  0  0  0
 13  3  1  6  0  0  0
 14 16  1  0  0  0  0
 14  4  1  6  0  0  0
M  CHG  4   5  -1   7  -1   9   1  10   1
M  END
