270
 OpenBabel10141417493D

 27 29  0  0  1  0  0  0  0  0999 V2000
    1.0907   -0.2182    0.2282 O   0  0  0  0  0  0  0  0  0  0  0  0
   -3.7167    3.9071    0.8215 O   0  0  0  0  0  0  0  0  0  0  0  0
    0.8941    1.8709    1.1472 O   0  0  0  0  0  0  0  0  0  0  0  0
   -0.2363    6.1459    0.1575 O   0  0  0  0  0  0  0  0  0  0  0  0
   -5.4810    2.8806   -0.2230 O   0  0  0  0  0  0  0  0  0  0  0  0
   -2.9874   -0.6251    0.0254 N   0  0  0  0  0  0  0  0  0  0  0  0
   -0.8051    4.9362    0.5090 N   0  0  0  0  0  0  0  0  0  0  0  0
    0.0437    6.2105   -1.1951 N   0  0  0  0  0  0  0  0  0  0  0  0
   -1.8831    1.9752    0.2930 C   0  0  3  0  0  0  0  0  0  0  0  0
   -1.0520    0.6814    0.4166 C   0  0  0  0  0  0  0  0  0  0  0  0
   -3.3960    1.7064    0.1387 C   0  0  0  0  0  0  0  0  0  0  0  0
   -1.3563    2.8873   -0.8167 C   0  0  0  0  0  0  0  0  0  0  0  0
   -1.6411   -0.5380    0.3065 C   0  0  0  0  0  0  0  0  0  0  0  0
   -3.8666    0.4418   -0.0056 C   0  0  0  0  0  0  0  0  0  0  0  0
   -0.8726    4.2098   -0.6159 C   0  0  0  0  0  0  0  0  0  0  0  0
    0.4026    0.8530    0.6747 C   0  0  0  0  0  0  0  0  0  0  0  0
   -1.2889    2.4799   -2.1778 C   0  0  0  0  0  0  0  0  0  0  0  0
   -0.9527   -1.8664    0.5144 C   0  0  0  0  0  0  0  0  0  0  0  0
   -4.3394    2.8702    0.2001 C   0  0  0  0  0  0  0  0  0  0  0  0
   -5.3181    0.0498   -0.1668 C   0  0  0  0  0  0  0  0  0  0  0  0
   -0.3431    5.0334   -1.7011 C   0  0  0  0  0  0  0  0  0  0  0  0
   -0.7805    3.2914   -3.2313 C   0  0  0  0  0  0  0  0  0  0  0  0
   -0.2832    4.5900   -3.0324 C   0  0  0  0  0  0  0  0  0  0  0  0
    2.5233   -0.1976    0.2198 C   0  0  0  0  0  0  0  0  0  0  0  0
    3.0369   -1.3623    1.0596 C   0  0  0  0  0  0  0  0  0  0  0  0
    2.9304   -0.3599   -1.2374 C   0  0  0  0  0  0  0  0  0  0  0  0
   -4.4500    5.1301    0.9283 C   0  0  0  0  0  0  0  0  0  0  0  0
  1 16  1  0  0  0  0
  1 24  1  0  0  0  0
  2 19  1  0  0  0  0
  2 27  1  0  0  0  0
  3 16  2  0  0  0  0
  4  7  1  0  0  0  0
  4  8  1  0  0  0  0
  5 19  2  0  0  0  0
  6 13  1  0  0  0  0
  6 14  1  0  0  0  0
  7 15  2  0  0  0  0
  8 21  2  0  0  0  0
  9 10  1  0  0  0  0
  9 11  1  0  0  0  0
  9 12  1  0  0  0  0
 10 13  2  0  0  0  0
 10 16  1  0  0  0  0
 11 14  2  0  0  0  0
 11 19  1  0  0  0  0
 12 15  1  0  0  0  0
 12 17  2  0  0  0  0
 13 18  1  0  0  0  0
 14 20  1  0  0  0  0
 15 21  1  0  0  0  0
 17 22  1  0  0  0  0
 21 23  1  0  0  0  0
 22 23  2  0  0  0  0
 24 25  1  0  0  0  0
 24 26  1  0  0  0  0
M  END
