1167
 OpenBabel10141417503D

 49 55  0  0  1  0  0  0  0  0999 V2000
    2.3900    0.7294   -0.4364 Cl  0  0  0  0  0  0  0  0  0  0  0  0
    7.0199   -0.6537   -2.7246 Cl  0  0  0  0  0  0  0  0  0  0  0  0
    1.8659    3.5110   -1.7980 O   0  0  0  0  0  0  0  0  0  0  0  0
    3.6569    5.0064   -1.7159 O   0  0  0  0  0  0  0  0  0  0  0  0
   -0.3604    3.5572   -3.5873 O   0  0  0  0  0  0  0  0  0  0  0  0
  -14.1902    2.8126   -2.8194 O   0  0  0  0  0  0  0  0  0  0  0  0
   -5.8106    3.7306   -2.1910 N   0  0  0  0  0  0  0  0  0  0  0  0
   -7.8510    3.7712   -4.2925 N   0  0  0  0  0  0  0  0  0  0  0  0
    4.0339    4.2759    1.1685 N   0  0  0  0  0  0  0  0  0  0  0  0
  -13.4795    4.4630   -4.2922 N   0  0  0  0  0  0  0  0  0  0  0  0
    3.8430    4.5474    2.4789 N   0  0  0  0  0  0  0  0  0  0  0  0
  -15.6146    4.3674   -3.7666 N   0  0  0  0  0  0  0  0  0  0  0  0
    6.0523    4.6472    1.9344 N   0  0  0  0  0  0  0  0  0  0  0  0
  -15.4814    5.4153   -4.6449 N   0  0  0  0  0  0  0  0  0  0  0  0
    3.1398    3.7617   -1.1709 C   0  0  1  0  0  0  0  0  0  0  0  0
    1.8032    4.3915   -2.9258 C   0  0  2  0  0  0  0  0  0  0  0  0
    2.5794    5.5874   -2.4441 C   0  0  0  0  0  0  0  0  0  0  0  0
   -6.6817    2.5431   -2.4115 C   0  0  0  0  0  0  0  0  0  0  0  0
   -6.5780    4.9714   -2.5083 C   0  0  0  0  0  0  0  0  0  0  0  0
   -7.2091    2.4994   -3.8696 C   0  0  0  0  0  0  0  0  0  0  0  0
   -7.0263    4.9668   -3.9937 C   0  0  0  0  0  0  0  0  0  0  0  0
    2.8858    3.9971    0.3348 C   0  0  0  0  0  0  0  0  0  0  0  0
    4.0767    2.6088   -1.5466 C   0  0  0  0  0  0  0  0  0  0  0  0
    0.3666    4.7483   -3.2553 C   0  0  0  0  0  0  0  0  0  0  0  0
   -4.4599    3.6714   -2.5701 C   0  0  0  0  0  0  0  0  0  0  0  0
   -9.2299    3.9277   -4.2685 C   0  0  0  0  0  0  0  0  0  0  0  0
    3.8285    1.2588   -1.2333 C   0  0  0  0  0  0  0  0  0  0  0  0
    5.2646    2.8929   -2.2636 C   0  0  0  0  0  0  0  0  0  0  0  0
   -3.7513    4.8318   -2.9261 C   0  0  0  0  0  0  0  0  0  0  0  0
   -3.7057    2.4832   -2.5652 C   0  0  0  0  0  0  0  0  0  0  0  0
   -1.6923    3.6358   -3.2841 C   0  0  0  0  0  0  0  0  0  0  0  0
  -10.0737    3.1329   -3.4995 C   0  0  0  0  0  0  0  0  0  0  0  0
   -9.8496    4.8867   -5.0855 C   0  0  0  0  0  0  0  0  0  0  0  0
   -2.4083    4.8206   -3.2966 C   0  0  0  0  0  0  0  0  0  0  0  0
   -2.3464    2.4596   -2.9384 C   0  0  0  0  0  0  0  0  0  0  0  0
  -12.0749    4.2765   -4.3241 C   0  0  0  0  0  0  0  0  0  0  0  0
  -11.4657    3.2988   -3.5263 C   0  0  0  0  0  0  0  0  0  0  0  0
  -11.2454    5.0557   -5.1213 C   0  0  0  0  0  0  0  0  0  0  0  0
    4.7451    0.2559   -1.5857 C   0  0  0  0  0  0  0  0  0  0  0  0
    6.1762    1.8966   -2.6127 C   0  0  0  0  0  0  0  0  0  0  0  0
    5.3545    4.3651    0.8605 C   0  0  0  0  0  0  0  0  0  0  0  0
  -16.9284    4.0834   -3.1381 C   0  0  3  0  0  0  0  0  0  0  0  0
    5.9107    0.5795   -2.2727 C   0  0  0  0  0  0  0  0  0  0  0  0
  -14.3926    3.7734   -3.5427 C   0  0  0  0  0  0  0  0  0  0  0  0
  -17.9645    3.7168   -4.2172 C   0  0  0  0  0  0  0  0  0  0  0  0
    5.0945    4.7585    2.8946 C   0  0  0  0  0  0  0  0  0  0  0  0
  -14.2225    5.4085   -4.9319 C   0  0  0  0  0  0  0  0  0  0  0  0
  -16.8232    2.9991   -2.0550 C   0  0  0  0  0  0  0  0  0  0  0  0
  -19.3492    3.3984   -3.6701 C   0  0  0  0  0  0  0  0  0  0  0  0
  1 27  1  0  0  0  0
  2 43  1  0  0  0  0
  3 15  1  0  0  0  0
  3 16  1  0  0  0  0
  4 15  1  0  0  0  0
  4 17  1  0  0  0  0
  5 24  1  0  0  0  0
  5 31  1  0  0  0  0
  6 44  2  0  0  0  0
  7 18  1  0  0  0  0
  7 19  1  0  0  0  0
  7 25  1  0  0  0  0
  8 20  1  0  0  0  0
  8 21  1  0  0  0  0
  8 26  1  0  0  0  0
  9 11  1  0  0  0  0
  9 22  1  0  0  0  0
  9 41  1  0  0  0  0
 10 36  1  0  0  0  0
 10 44  1  0  0  0  0
 10 47  1  0  0  0  0
 11 46  2  0  0  0  0
 12 14  1  0  0  0  0
 12 42  1  0  0  0  0
 12 44  1  0  0  0  0
 13 41  2  0  0  0  0
 13 46  1  0  0  0  0
 14 47  2  0  0  0  0
 15 22  1  1  0  0  0
 15 23  1  0  0  0  0
 16 17  1  0  0  0  0
 16 24  1  1  0  0  0
 18 20  1  0  0  0  0
 19 21  1  0  0  0  0
 23 27  2  0  0  0  0
 23 28  1  0  0  0  0
 25 29  2  0  0  0  0
 25 30  1  0  0  0  0
 26 32  2  0  0  0  0
 26 33  1  0  0  0  0
 27 39  1  0  0  0  0
 28 40  2  0  0  0  0
 29 34  1  0  0  0  0
 30 35  2  0  0  0  0
 31 34  2  0  0  0  0
 31 35  1  0  0  0  0
 32 37  1  0  0  0  0
 33 38  2  0  0  0  0
 36 37  2  0  0  0  0
 36 38  1  0  0  0  0
 39 43  2  0  0  0  0
 40 43  1  0  0  0  0
 42 45  1  0  0  0  0
 42 48  1  0  0  0  0
 45 49  1  0  0  0  0
M  END
