[NO NAME]
 OpenBabel10141417503D
Created with ChemWriter - http://chemwriter.com
 29 31  0  0  0  0  0  0  0  0999 V2000
    2.5800    1.0429   -0.3847 O   0  0  0  0  0  0  0  0  0  0  0  0
    6.9390    1.8352    1.7748 O   0  0  0  0  0  0  0  0  0  0  0  0
    9.6122    0.3944   -1.1417 O   0  0  0  0  0  0  0  0  0  0  0  0
    7.2480    0.3461    0.0166 N   0  0  0  0  0  0  0  0  0  0  0  0
   10.8905    3.1211    1.5549 N   0  0  0  0  0  0  0  0  0  0  0  0
    6.9228   -2.7224    0.2705 C   0  0  0  0  0  0  0  0  0  0  0  0
    1.8831   -1.8189   -0.3691 C   0  0  0  0  0  0  0  0  0  0  0  0
    5.7973   -1.6599    0.0478 C   0  0  0  0  0  0  0  0  0  0  0  0
    3.3177   -1.2422   -0.2344 C   0  0  0  0  0  0  0  0  0  0  0  0
    4.4484   -2.0972   -0.0822 C   0  0  0  0  0  0  0  0  0  0  0  0
    5.9810   -0.2630    0.0351 C   0  0  0  0  0  0  0  0  0  0  0  0
    7.4815   -3.2326   -1.0744 C   0  0  0  0  0  0  0  0  0  0  0  0
    8.1157   -2.2034    1.1074 C   0  0  0  0  0  0  0  0  0  0  0  0
    6.4302   -3.9860    1.0386 C   0  0  0  0  0  0  0  0  0  0  0  0
    3.5850    0.1288   -0.2259 C   0  0  0  0  0  0  0  0  0  0  0  0
    0.9731   -1.3065    0.7713 C   0  0  0  0  0  0  0  0  0  0  0  0
    1.2123   -1.4446   -1.7119 C   0  0  0  0  0  0  0  0  0  0  0  0
    1.8625   -3.3679   -0.3036 C   0  0  0  0  0  0  0  0  0  0  0  0
    4.8863    0.6100   -0.0753 C   0  0  0  0  0  0  0  0  0  0  0  0
    7.6517    1.3400    0.8784 C   0  0  0  0  0  0  0  0  0  0  0  0
    9.0782    1.7511    0.7314 C   0  0  0  0  0  0  0  0  0  0  0  0
   10.0044    1.1984   -0.3030 C   0  0  0  0  0  0  0  0  0  0  0  0
   11.4247    1.6212   -0.2770 C   0  0  0  0  0  0  0  0  0  0  0  0
    9.5988    2.6584    1.5782 C   0  0  0  0  0  0  0  0  0  0  0  0
   11.8313    2.5668    0.6780 C   0  0  0  0  0  0  0  0  0  0  0  0
   12.3363    1.0719   -1.1832 C   0  0  0  0  0  0  0  0  0  0  0  0
   13.1652    2.9822    0.6863 C   0  0  0  0  0  0  0  0  0  0  0  0
   13.6684    1.4810   -1.1504 C   0  0  0  0  0  0  0  0  0  0  0  0
   14.0802    2.4357   -0.2201 C   0  0  0  0  0  0  0  0  0  0  0  0
  1 15  1  0  0  0  0
  2 20  2  0  0  0  0
  3 22  2  0  0  0  0
  4 11  1  0  0  0  0
  4 20  1  0  0  0  0
  5 24  1  0  0  0  0
  5 25  1  0  0  0  0
  6  8  1  0  0  0  0
  6 12  1  0  0  0  0
  6 13  1  0  0  0  0
  6 14  1  0  0  0  0
  7  9  1  0  0  0  0
  7 16  1  0  0  0  0
  7 17  1  0  0  0  0
  7 18  1  0  0  0  0
  8 10  2  0  0  0  0
  8 11  1  0  0  0  0
  9 10  1  0  0  0  0
  9 15  2  0  0  0  0
 11 19  2  0  0  0  0
 15 19  1  0  0  0  0
 20 21  1  0  0  0  0
 21 22  1  0  0  0  0
 21 24  2  0  0  0  0
 22 23  1  0  0  0  0
 23 25  1  0  0  0  0
 23 26  2  0  0  0  0
 25 27  2  0  0  0  0
 26 28  1  0  0  0  0
 27 29  1  0  0  0  0
 28 29  2  0  0  0  0
M  END
