
 OpenBabel10141417533D

 35 37  0  0  1  0  0  0  0  0999 V2000
   -2.3657   -2.4538   -5.0330 S   0  0  0  0  0  0  0  0  0  0  0  0
   -0.6268    0.8560    3.2069 O   0  0  0  0  0  0  0  0  0  0  0  0
   -0.8237    7.4260    4.9929 O   0  0  0  0  0  0  0  0  0  0  0  0
   -4.7567    6.2379    0.7073 O   0  0  0  0  0  0  0  0  0  0  0  0
   -2.4776    5.9304    2.7670 O   0  0  0  0  0  0  0  0  0  0  0  0
   -5.3370    3.8203   -0.5415 O   0  0  0  0  0  0  0  0  0  0  0  0
   -3.9677    2.0842   -0.2091 N   0  0  0  0  0  0  0  0  0  0  0  0
   -2.2154   -2.3464   -2.4631 N   0  0  0  0  0  0  0  0  0  0  0  0
    0.1118    1.6870    2.2962 C   0  0  1  0  0  0  0  0  0  0  0  0
   -1.0267    0.7759    1.8326 C   0  0  2  0  0  0  0  0  0  0  0  0
   -0.0789    3.1647    2.5552 C   0  0  0  0  0  0  0  0  0  0  0  0
   -2.4380    1.2180    1.5765 C   0  0  0  0  0  0  0  0  0  0  0  0
    1.5151    1.2140    2.0510 C   0  0  0  0  0  0  0  0  0  0  0  0
    0.7580    3.6674    3.7389 C   0  0  0  0  0  0  0  0  0  0  0  0
   -2.7150    1.3850    0.0648 C   0  0  1  0  0  0  0  0  0  0  0  0
    0.3072    5.0397    4.2577 C   0  0  0  0  0  0  0  0  0  0  0  0
    0.5588    6.2299    3.3036 C   0  0  1  0  0  0  0  0  0  0  0  0
   -0.2277    7.5213    3.7005 C   0  0  1  0  0  0  0  0  0  0  0  0
   -1.2697    8.0016    2.6478 C   0  0  1  0  0  0  0  0  0  0  0  0
   -2.7917    0.0782   -0.7301 C   0  0  0  0  0  0  0  0  0  0  0  0
   -2.4021    6.8654    0.5165 C   0  0  0  0  0  0  0  0  0  0  0  0
    2.0593    6.5501    3.2268 C   0  0  0  0  0  0  0  0  0  0  0  0
   -2.1159    6.8648    2.0494 C   0  0  0  0  0  0  0  0  0  0  0  0
   -3.5133    5.8300    0.1252 C   0  0  1  0  0  0  0  0  0  0  0  0
   -3.2142    4.3555    0.4555 C   0  0  0  0  0  0  0  0  0  0  0  0
   -4.2433    3.4201   -0.1497 C   0  0  0  0  0  0  0  0  0  0  0  0
   -2.1936    9.0715    3.2353 C   0  0  0  0  0  0  0  0  0  0  0  0
   -3.4448   -1.0937   -0.0355 C   0  0  0  0  0  0  0  0  0  0  0  0
   -2.8744    8.2581    0.0487 C   0  0  0  0  0  0  0  0  0  0  0  0
   -1.0920    6.5288   -0.2209 C   0  0  0  0  0  0  0  0  0  0  0  0
   -2.3338    0.0456   -2.0031 C   0  0  0  0  0  0  0  0  0  0  0  0
   -2.3256   -1.0512   -2.9190 C   0  0  0  0  0  0  0  0  0  0  0  0
   -2.3863   -0.9083   -4.2894 C   0  0  0  0  0  0  0  0  0  0  0  0
   -2.2523   -3.1821   -3.4793 C   0  0  0  0  0  0  0  0  0  0  0  0
   -2.2033   -4.6636   -3.3523 C   0  0  0  0  0  0  0  0  0  0  0  0
  1 33  1  0  0  0  0
  1 34  1  0  0  0  0
  2  9  1  0  0  0  0
  5 23  2  0  0  0  0
  6 26  2  0  0  0  0
  7 15  1  0  0  0  0
  7 26  1  0  0  0  0
  8 32  1  0  0  0  0
  8 34  2  0  0  0  0
  9 10  1  0  0  0  0
  9 11  1  0  0  0  0
  9 13  1  6  0  0  0
 10  2  1  1  0  0  0
 10 12  1  0  0  0  0
 11 14  1  0  0  0  0
 12 15  1  0  0  0  0
 14 16  1  0  0  0  0
 15 20  1  6  0  0  0
 16 17  1  0  0  0  0
 17 18  1  0  0  0  0
 17 22  1  1  0  0  0
 18 19  1  0  0  0  0
 18  3  1  1  0  0  0
 19 23  1  0  0  0  0
 19 27  1  1  0  0  0
 20 28  1  0  0  0  0
 20 31  2  0  0  0  0
 21 23  1  0  0  0  0
 21 24  1  0  0  0  0
 21 29  1  0  0  0  0
 21 30  1  0  0  0  0
 24 25  1  0  0  0  0
 24  4  1  1  0  0  0
 25 26  1  0  0  0  0
 31 32  1  0  0  0  0
 32 33  2  0  0  0  0
 34 35  1  0  0  0  0
M  END
