1221
 OpenBabel10141417513D

 16 17  0  0  1  0  0  0  0  0999 V2000
    2.9930   -0.7035   -0.0571 Cl  0  0  0  0  0  0  0  0  0  0  0  0
    0.8630    1.4201    0.4967 O   0  0  0  0  0  0  0  0  0  0  0  0
    2.8354    2.3862   -1.1153 N   0  0  0  0  0  0  0  0  0  0  0  0
    3.0895    2.5048    0.3464 C   0  0  3  0  0  0  0  0  0  0  0  0
    3.2424    4.0284    0.6648 C   0  0  0  0  0  0  0  0  0  0  0  0
    3.1280    4.3848    2.1526 C   0  0  0  0  0  0  0  0  0  0  0  0
    1.7800    3.9508    2.7026 C   0  0  0  0  0  0  0  0  0  0  0  0
    1.7456    2.0755    1.0520 C   0  0  0  0  0  0  0  0  0  0  0  0
    1.5736    2.4600    2.5078 C   0  0  0  0  0  0  0  0  0  0  0  0
    4.2699    1.6041    0.8017 C   0  0  0  0  0  0  0  0  0  0  0  0
    4.2697    0.1946    0.6843 C   0  0  0  0  0  0  0  0  0  0  0  0
    5.4444    2.1733    1.3503 C   0  0  0  0  0  0  0  0  0  0  0  0
    3.8587    2.8562   -2.0238 C   0  0  0  0  0  0  0  0  0  0  0  0
    5.3533   -0.5801    1.1368 C   0  0  0  0  0  0  0  0  0  0  0  0
    6.5169    1.3982    1.8090 C   0  0  0  0  0  0  0  0  0  0  0  0
    6.4707    0.0181    1.7065 C   0  0  0  0  0  0  0  0  0  0  0  0
  1 11  1  0  0  0  0
  2  8  2  0  0  0  0
  3  4  1  0  0  0  0
  3 13  1  0  0  0  0
  4  5  1  0  0  0  0
  4  8  1  0  0  0  0
  4 10  1  0  0  0  0
  5  6  1  0  0  0  0
  6  7  1  0  0  0  0
  7  9  1  0  0  0  0
  8  9  1  0  0  0  0
 10 11  1  0  0  0  0
 10 12  2  0  0  0  0
 11 14  2  0  0  0  0
 12 15  1  0  0  0  0
 14 16  1  0  0  0  0
 15 16  2  0  0  0  0
M  END
