1587
 OpenBabel10141417503D

 26 29  0  0  1  0  0  0  0  0999 V2000
    1.5461   -0.4924   -1.7161 Cl  0  0  0  0  0  0  0  0  0  0  0  0
    5.5946   -3.5323   -1.8847 O   0  0  0  0  0  0  0  0  0  0  0  0
    8.9622   -1.6159   -2.9526 O   0  0  0  0  0  0  0  0  0  0  0  0
    8.8592   -0.3341    1.3944 O   0  0  0  0  0  0  0  0  0  0  0  0
    7.5926   -2.4280   -1.2805 N   0  0  0  0  0  0  0  0  0  0  0  0
    7.3237    0.2525   -0.2079 N   0  0  0  0  0  0  0  0  0  0  0  0
    6.2064   -2.6370   -0.9066 C   0  0  3  0  0  0  0  0  0  0  0  0
    5.4230   -1.3099   -0.9105 C   0  0  0  0  0  0  0  0  0  0  0  0
    6.0739   -3.4156    0.4254 C   0  0  0  0  0  0  0  0  0  0  0  0
    8.4986   -1.9931   -0.2505 C   0  0  0  0  0  0  0  0  0  0  0  0
    5.9840   -0.0261   -0.6969 C   0  0  0  0  0  0  0  0  0  0  0  0
    7.9234   -2.1562   -2.5879 C   0  0  0  0  0  0  0  0  0  0  0  0
    8.1877   -0.6582    0.4042 C   0  0  0  0  0  0  0  0  0  0  0  0
    4.0244   -1.4171   -1.1875 C   0  0  0  0  0  0  0  0  0  0  0  0
    5.8902   -3.3079   -3.2103 C   0  0  0  0  0  0  0  0  0  0  0  0
    6.9590   -2.6091   -3.5990 C   0  0  0  0  0  0  0  0  0  0  0  0
    5.1187    1.0814   -0.9077 C   0  0  0  0  0  0  0  0  0  0  0  0
    6.4183   -4.7847    0.4649 C   0  0  0  0  0  0  0  0  0  0  0  0
    5.6694   -2.8118    1.6318 C   0  0  0  0  0  0  0  0  0  0  0  0
    7.6953    1.6468    0.0433 C   0  0  0  0  0  0  0  0  0  0  0  0
    3.2132   -0.3048   -1.3511 C   0  0  0  0  0  0  0  0  0  0  0  0
    3.7638    0.9519   -1.2337 C   0  0  0  0  0  0  0  0  0  0  0  0
    4.9090   -3.9031   -4.1683 C   0  0  0  0  0  0  0  0  0  0  0  0
    6.3428   -5.5190    1.6500 C   0  0  0  0  0  0  0  0  0  0  0  0
    5.5963   -3.5492    2.8173 C   0  0  0  0  0  0  0  0  0  0  0  0
    5.9300   -4.9005    2.8255 C   0  0  0  0  0  0  0  0  0  0  0  0
  1 21  1  0  0  0  0
  2  7  1  0  0  0  0
  2 15  1  0  0  0  0
  3 12  2  0  0  0  0
  4 13  2  0  0  0  0
  5  7  1  0  0  0  0
  5 10  1  0  0  0  0
  5 12  1  0  0  0  0
  6 11  1  0  0  0  0
  6 13  1  0  0  0  0
  6 20  1  0  0  0  0
  7  8  1  0  0  0  0
  7  9  1  0  0  0  0
  8 11  2  0  0  0  0
  8 14  1  0  0  0  0
  9 18  2  0  0  0  0
  9 19  1  0  0  0  0
 10 13  1  0  0  0  0
 11 17  1  0  0  0  0
 12 16  1  0  0  0  0
 14 21  2  0  0  0  0
 15 16  2  0  0  0  0
 15 23  1  0  0  0  0
 17 22  2  0  0  0  0
 18 24  1  0  0  0  0
 19 25  2  0  0  0  0
 21 22  1  0  0  0  0
 24 26  2  0  0  0  0
 25 26  1  0  0  0  0
M  END
