
 OpenBabel10141417483D

 36 40  0  0  0  0  0  0  0  0999 V2000
   -1.1567   -0.0349   -3.8801 C   0  0  0  0  0  0  0  0  0  0  0  0
   -1.0417   -1.2770   -3.2672 C   0  0  0  0  0  0  0  0  0  0  0  0
    1.3995   -1.0370   -3.1550 C   0  0  0  0  0  0  0  0  0  0  0  0
    1.2369    0.2228   -3.7801 C   0  0  0  0  0  0  0  0  0  0  0  0
   -0.0224    0.7239   -4.1269 C   0  0  0  0  0  0  0  0  0  0  0  0
    0.2209   -1.7673   -2.8903 C   0  0  0  0  0  0  0  0  0  0  0  0
    7.7254    0.7988   -2.6269 C   0  0  0  0  0  0  0  0  0  0  0  0
    8.3057    1.9082   -3.2357 C   0  0  0  0  0  0  0  0  0  0  0  0
    8.5621   -0.1696   -2.0774 C   0  0  0  0  0  0  0  0  0  0  0  0
    9.9628    0.0024   -2.0971 C   0  0  0  0  0  0  0  0  0  0  0  0
    9.6975    2.0735   -3.2562 C   0  0  0  0  0  0  0  0  0  0  0  0
   10.5610    1.1326   -2.6789 C   0  0  0  0  0  0  0  0  0  0  0  0
   12.5292    2.0457   -3.8120 C   0  0  0  0  0  0  0  0  0  0  0  0
   12.4711    1.7574   -1.3471 C   0  0  0  0  0  0  0  0  0  0  0  0
   14.0145    1.8738   -1.3368 C   0  0  0  0  0  0  0  0  0  0  0  0
   14.0665    2.1057   -3.7635 C   0  0  0  0  0  0  0  0  0  0  0  0
   11.9707    1.2756   -2.6701 N   0  0  0  0  0  0  0  0  0  0  0  0
   14.5198    2.6549   -2.4764 N   0  0  0  0  0  0  0  0  0  0  0  0
   15.7513    4.5992   -3.4514 C   0  0  0  0  0  0  0  0  0  0  0  0
   15.2343    3.8106   -2.2679 C   0  0  0  0  0  0  0  0  0  0  0  0
   15.4981    4.2248   -1.1292 O   0  0  0  0  0  0  0  0  0  0  0  0
    6.3572    0.7596   -2.6733 O   0  0  0  0  0  0  0  0  0  0  0  0
    3.3868   -0.5890   -0.7599 C   0  0  0  0  0  0  0  0  0  0  0  0
    5.6988    0.0040   -1.6461 C   0  0  0  0  0  0  0  0  0  0  0  0
    4.1776    0.1202   -1.8383 C   0  0  3  0  0  0  0  0  0  0  0  0
    2.8565   -1.7659   -1.3597 O   0  0  0  0  0  0  0  0  0  0  0  0
    3.7641   -0.4754   -3.0761 O   0  0  0  0  0  0  0  0  0  0  0  0
    2.8164   -1.5174   -2.7685 C   0  0  3  0  0  0  0  0  0  0  0  0
   -2.7043    0.5710   -4.3230 Cl  0  0  0  0  0  0  0  0  0  0  0  0
    0.2202   -3.2839   -2.0599 Cl  0  0  0  0  0  0  0  0  0  0  0  0
    3.2460   -2.7801   -3.5577 C   0  0  0  0  0  0  0  0  0  0  0  0
    4.8829   -4.2167   -2.2811 C   0  0  0  0  0  0  0  0  0  0  0  0
    6.2559   -4.2970   -2.2864 C   0  0  0  0  0  0  0  0  0  0  0  0
    5.7579   -2.8144   -3.7407 C   0  0  0  0  0  0  0  0  0  0  0  0
    4.5801   -3.2496   -3.2009 N   0  0  0  0  0  0  0  0  0  0  0  0
    6.7893   -3.4158   -3.1896 N   0  0  0  0  0  0  0  0  0  0  0  0
  1 29  1  0  0  0  0
  2  1  1  0  0  0  0
  2  6  2  0  0  0  0
  3  4  2  0  0  0  0
  4  5  1  0  0  0  0
  5  1  2  0  0  0  0
  6  3  1  0  0  0  0
  6 30  1  0  0  0  0
  7 22  1  0  0  0  0
  7  9  2  0  0  0  0
  8  7  1  0  0  0  0
  8 11  2  0  0  0  0
  9 10  1  0  0  0  0
 10 12  2  0  0  0  0
 12 11  1  0  0  0  0
 12 17  1  0  0  0  0
 13 17  1  0  0  0  0
 13 16  1  0  0  0  0
 14 15  1  0  0  0  0
 15 18  1  0  0  0  0
 17 14  1  0  0  0  0
 18 16  1  0  0  0  0
 18 20  1  0  0  0  0
 20 19  1  0  0  0  0
 20 21  2  0  0  0  0
 22 24  1  0  0  0  0
 25 23  1  0  0  0  0
 25 24  1  0  0  0  0
 26 23  1  0  0  0  0
 26 28  1  0  0  0  0
 27 25  1  0  0  0  0
 28  3  1  0  0  0  0
 28 27  1  0  0  0  0
 28 31  1  0  0  0  0
 31 35  1  0  0  0  0
 32 35  1  0  0  0  0
 32 33  2  0  0  0  0
 33 36  1  0  0  0  0
 34 35  1  0  0  0  0
 36 34  2  0  0  0  0
M  END
