
 OpenBabel10141417493D

 18 19  0  0  0  0  0  0  0  0999 V2000
    0.4783    1.0801   -0.7656 C   0  0  0  0  0  0  0  0  0  0  0  0
    0.2464    0.8275   -2.2769 C   0  0  0  0  0  0  0  0  0  0  0  0
    1.2777    2.4028   -0.5716 C   0  0  0  0  0  0  0  0  0  0  0  0
    1.3195   -0.0624   -0.1130 C   0  0  0  0  0  0  0  0  0  0  0  0
   -0.8216    1.1788    0.0792 C   0  0  0  0  0  0  0  0  0  0  0  0
   -1.0379    0.8345   -2.8588 C   0  0  0  0  0  0  0  0  0  0  0  0
    1.3362    0.5988   -3.1422 C   0  0  0  0  0  0  0  0  0  0  0  0
    0.6980    3.7035   -1.1132 C   0  0  0  0  0  0  0  0  0  0  0  0
    2.3732    2.4098    0.0133 O   0  0  0  0  0  0  0  0  0  0  0  0
    0.5536   -1.3733    0.0463 C   0  0  0  0  0  0  0  0  0  0  0  0
   -1.5426   -0.1709    0.2357 C   0  0  0  0  0  0  0  0  0  0  0  0
   -1.2368    0.5657   -4.2167 C   0  0  0  0  0  0  0  0  0  0  0  0
    1.1288    0.3631   -4.5056 C   0  0  0  0  0  0  0  0  0  0  0  0
   -0.7106   -1.2435    0.7756 N   0  0  0  0  0  0  0  0  0  0  0  0
   -0.1489    0.3297   -5.0437 C   0  0  0  0  0  0  0  0  0  0  0  0
   -0.5370   -1.1358    2.2199 C   0  0  0  0  0  0  0  0  0  0  0  0
    2.1700    0.1620   -5.3636 O   0  0  0  0  0  0  0  0  0  0  0  0
    1.6035    4.8930   -0.8092 C   0  0  0  0  0  0  0  0  0  0  0  0
  1  3  1  0  0  0  0
  1  4  1  0  0  0  0
  1  5  1  0  0  0  0
  1  2  1  0  0  0  0
  2  6  1  0  0  0  0
  2  7  2  0  0  0  0
  3  8  1  0  0  0  0
  3  9  2  0  0  0  0
  4 10  1  0  0  0  0
  5 11  1  0  0  0  0
  6 12  2  0  0  0  0
  7 13  1  0  0  0  0
  8 18  1  0  0  0  0
 10 14  1  0  0  0  0
 11 14  1  0  0  0  0
 12 15  1  0  0  0  0
 13 15  2  0  0  0  0
 13 17  1  0  0  0  0
 14 16  1  0  0  0  0
M  END
