1009
 OpenBabel10141418213D

 19 20  0  0  1  0  0  0  0  0999 V2000
    5.1642    3.9178    1.3191 O   0  0  0  0  0  0  0  0  0  0  0  0
    2.8289   -1.1967    4.7066 O   0  0  0  0  0  0  0  0  0  0  0  0
    4.0050    4.1259   -0.6006 O   0  0  0  0  0  0  0  0  0  0  0  0
    3.6678    2.1130    0.7501 C   0  0  3  0  0  0  0  0  0  0  0  0
    2.8778    2.0962    2.0541 C   0  0  0  0  0  0  0  0  0  0  0  0
    2.7946    0.9148    2.8199 C   0  0  0  0  0  0  0  0  0  0  0  0
    1.9461    0.8378    3.9392 C   0  0  0  0  0  0  0  0  0  0  0  0
    2.1266    3.2110    2.4562 C   0  0  0  0  0  0  0  0  0  0  0  0
    2.7661    1.6262   -0.3892 C   0  0  0  0  0  0  0  0  0  0  0  0
    1.2224    1.9712    4.3236 C   0  0  0  0  0  0  0  0  0  0  0  0
    1.3115    3.1495    3.5845 C   0  0  0  0  0  0  0  0  0  0  0  0
    1.8573   -0.4435    4.7047 C   0  0  0  0  0  0  0  0  0  0  0  0
    4.2715    3.4723    0.4037 C   0  0  0  0  0  0  0  0  0  0  0  0
    0.6382   -0.8260    5.4817 C   0  0  0  0  0  0  0  0  0  0  0  0
    0.7861   -1.6224    6.6260 C   0  0  0  0  0  0  0  0  0  0  0  0
   -0.6479   -0.4290    5.0915 C   0  0  0  0  0  0  0  0  0  0  0  0
   -0.3290   -1.9615    7.3999 C   0  0  0  0  0  0  0  0  0  0  0  0
   -1.7575   -0.7524    5.8773 C   0  0  0  0  0  0  0  0  0  0  0  0
   -1.5971   -1.5123    7.0339 C   0  0  0  0  0  0  0  0  0  0  0  0
  1 13  1  0  0  0  0
  2 12  2  0  0  0  0
  3 13  2  0  0  0  0
  4  5  1  0  0  0  0
  4  9  1  0  0  0  0
  4 13  1  0  0  0  0
  5  6  2  0  0  0  0
  5  8  1  0  0  0  0
  6  7  1  0  0  0  0
  7 10  2  0  0  0  0
  7 12  1  0  0  0  0
  8 11  2  0  0  0  0
 10 11  1  0  0  0  0
 12 14  1  0  0  0  0
 14 15  2  0  0  0  0
 14 16  1  0  0  0  0
 15 17  1  0  0  0  0
 16 18  2  0  0  0  0
 17 19  2  0  0  0  0
 18 19  1  0  0  0  0
M  END
