174
 OpenBabel10141417493D

  9  8  0  0  1  0  0  0  0  0999 V2000
    0.4920    0.4120    0.2421 O   0  0  0  0  0  0  0  0  0  0  0  0
    1.2488   -0.7856   -1.4884 O   0  0  0  0  0  0  0  0  0  0  0  0
    3.4471    1.6880   -0.9175 O   0  0  0  0  0  0  0  0  0  0  0  0
    2.4644   -1.8746    1.2260 N   0  0  0  0  0  0  0  0  0  0  0  0
    5.2849    0.7500   -1.8131 N   0  0  0  0  0  0  0  0  0  0  0  0
    2.6616   -0.5889    0.5115 C   0  0  1  0  0  0  0  0  0  0  0  0
    3.9291   -0.6236   -0.3483 C   0  0  0  0  0  0  0  0  0  0  0  0
    1.4387   -0.3267   -0.3686 C   0  0  0  0  0  0  0  0  0  0  0  0
    4.1668    0.7051   -1.0341 C   0  0  0  0  0  0  0  0  0  0  0  0
  1  8  1  0  0  0  0
  2  8  2  0  0  0  0
  3  9  2  0  0  0  0
  5  9  1  0  0  0  0
  6  4  1  6  0  0  0
  6  7  1  0  0  0  0
  6  8  1  0  0  0  0
  7  9  1  0  0  0  0
M  END
