
 OpenBabel10141417483D

 10  9  0  0  1  0  0  0  0  0999 V2000
    1.0885    2.5966   -0.3469 N   0  0  0  0  0  0  0  0  0  0  0  0
    2.4393    2.4190   -0.3339 C   0  0  0  0  0  0  0  0  0  0  0  0
    6.6688    1.7482   -1.6502 C   0  0  0  0  0  0  0  0  0  0  0  0
    7.1943    1.9661   -0.4211 O   0  0  0  0  0  0  0  0  0  0  0  0
    5.1359    1.8953   -1.7135 C   0  0  2  0  0  0  0  0  0  0  0  0
    4.4256    0.9136   -0.7685 C   0  0  0  0  0  0  0  0  0  0  0  0
    2.8995    1.0484   -0.7871 C   0  0  0  0  0  0  0  0  0  0  0  0
    7.3677    1.5083   -2.6186 O   0  0  0  0  0  0  0  0  0  0  0  0
    4.6612    1.6746   -3.1002 N   0  0  0  0  0  0  0  0  0  0  0  0
    3.1852    3.3068    0.0593 O   0  0  0  0  0  0  0  0  0  0  0  0
  1  2  1  0  0  0  0
  3  8  2  0  0  0  0
  4  3  1  0  0  0  0
  5  3  1  6  0  0  0
  5  9  1  0  0  0  0
  6  5  1  0  0  0  0
  7  2  1  0  0  0  0
  7  6  1  0  0  0  0
 10  2  2  0  0  0  0
M  END
