117
 OpenBabel10141418123D

 11 11  0  0  1  0  0  0  0  0999 V2000
    1.5225    0.6606    0.9811 O   0  0  0  0  0  0  0  0  0  0  0  0
    1.8316   -0.0872   -1.0967 O   0  0  0  0  0  0  0  0  0  0  0  0
    5.9902    2.8875   -1.6729 N   0  0  0  0  0  0  0  0  0  0  0  0
    2.5226    3.1092    0.4212 N   0  0  0  0  0  0  0  0  0  0  0  0
    6.8227    4.4164   -0.3043 N   0  0  0  0  0  0  0  0  0  0  0  0
    4.4226    1.5564   -0.1951 C   0  0  0  0  0  0  0  0  0  0  0  0
    2.9650    1.9892   -0.4440 C   0  0  1  0  0  0  0  0  0  0  0  0
    5.4126    2.6488   -0.4485 C   0  0  0  0  0  0  0  0  0  0  0  0
    2.0470    0.7738   -0.2572 C   0  0  0  0  0  0  0  0  0  0  0  0
    5.9626    3.6026    0.3829 C   0  0  0  0  0  0  0  0  0  0  0  0
    6.8205    3.9642   -1.5360 C   0  0  0  0  0  0  0  0  0  0  0  0
  1  9  1  0  0  0  0
  2  9  2  0  0  0  0
  3  8  1  0  0  0  0
  3 11  1  0  0  0  0
  5 10  1  0  0  0  0
  5 11  2  0  0  0  0
  6  7  1  0  0  0  0
  6  8  1  0  0  0  0
  7  4  1  1  0  0  0
  7  9  1  0  0  0  0
  8 10  2  0  0  0  0
M  END
