
 OpenBabel10141417483D

  9  8  0  0  1  0  0  0  0  0999 V2000
    4.8986    0.3076    2.8051 O   0  0  0  0  0  0  0  0  0  0  0  0
    4.7050   -0.1072   -2.1449 C   0  0  0  0  0  0  0  0  0  0  0  0
    3.2537    0.2438   -0.0580 C   0  0  0  0  0  0  0  0  0  0  0  0
    5.1829   -0.1306    1.5541 C   0  0  0  0  0  0  0  0  0  0  0  0
    6.2864    0.0080    1.0566 O   0  0  0  0  0  0  0  0  0  0  0  0
    3.9826   -0.7749    0.8347 C   0  0  1  0  0  0  0  0  0  0  0  0
    3.0337   -1.3678    1.8048 N   0  0  0  0  0  0  0  0  0  0  0  0
    4.1192    0.9036   -1.1579 C   0  0  0  0  0  0  0  0  0  0  0  0
    3.2982    1.9463   -1.9230 C   0  0  0  0  0  0  0  0  0  0  0  0
  1  4  1  0  0  0  0
  2  8  1  0  0  0  0
  4  5  2  0  0  0  0
  6  7  1  1  0  0  0
  6  3  1  0  0  0  0
  6  4  1  0  0  0  0
  8  3  1  0  0  0  0
  8  9  1  0  0  0  0
M  END
