
 OpenBabel10141418123D

 10  9  0  0  0  0  0  0  0  0999 V2000
    3.8538    3.1470    0.8484 O   0  0  0  0  0  0  0  0  0  0  0  0
    2.3498    0.0307    0.0264 C   0  0  0  0  0  0  0  0  0  0  0  0
    1.5640    0.8638   -0.9882 C   0  0  0  0  0  0  0  0  0  0  0  0
    0.8123   -0.0033   -1.9966 C   0  0  0  0  0  0  0  0  0  0  0  0
    0.0355    0.8563   -2.9957 C   0  0  0  0  0  0  0  0  0  0  0  0
   -0.9556    1.6873   -2.3176 N   0  0  0  0  0  0  0  0  0  0  0  0
    4.0650    1.8398    0.5426 C   0  0  0  0  0  0  0  0  0  0  0  0
    5.0108    1.4866   -0.1326 O   0  0  0  0  0  0  0  0  0  0  0  0
    3.0044    0.8822    1.1275 C   0  0  1  0  0  0  0  0  0  0  0  0
    1.9751    1.6135    1.8979 N   0  0  0  0  0  0  0  0  0  0  0  0
  1  7  1  0  0  0  0
  3  2  1  0  0  0  0
  4  3  1  0  0  0  0
  5  4  1  0  0  0  0
  6  5  1  0  0  0  0
  7  8  2  0  0  0  0
  9 10  1  6  0  0  0
  9  2  1  0  0  0  0
  9  7  1  0  0  0  0
M  END
