
 OpenBabel10141417483D

  9  8  0  0  1  0  0  0  0  0999 V2000
    1.1916   -0.3504    0.5998 C   0  0  0  0  0  0  0  0  0  0  0  0
    0.9621    0.1712    2.0187 C   0  0  0  0  0  0  0  0  0  0  0  0
   -0.4500    0.7424    2.2105 C   0  0  0  0  0  0  0  0  0  0  0  0
   -0.6898    1.3129    3.6129 C   0  0  1  0  0  0  0  0  0  0  0  0
   -2.1101    1.9076    3.7277 C   0  0  0  0  0  0  0  0  0  0  0  0
   -2.9535    1.5132    4.5186 O   0  0  0  0  0  0  0  0  0  0  0  0
    1.0435    0.7178   -0.3840 N   0  0  0  0  0  0  0  0  0  0  0  0
   -0.5067    0.2587    4.6358 N   0  0  0  0  0  0  0  0  0  0  0  0
   -2.3384    2.9579    2.9036 O   0  0  0  0  0  0  0  0  0  0  0  0
  2  1  1  0  0  0  0
  3  2  1  0  0  0  0
  4  3  1  6  0  0  0
  4  8  1  0  0  0  0
  5  4  1  0  0  0  0
  6  5  2  0  0  0  0
  7  1  1  0  0  0  0
  9  5  1  0  0  0  0
M  END
