150
 OpenBabel10141417493D

 15 16  0  0  1  0  0  0  0  0999 V2000
    1.1970    0.3777    0.1142 O   0  0  0  0  0  0  0  0  0  0  0  0
    3.0994    1.0318   -0.9426 O   0  0  0  0  0  0  0  0  0  0  0  0
    6.6462   -1.1693    3.9375 N   0  0  0  0  0  0  0  0  0  0  0  0
    2.3697   -1.1839    1.7841 N   0  0  0  0  0  0  0  0  0  0  0  0
    5.4187   -1.0843    2.0770 C   0  0  0  0  0  0  0  0  0  0  0  0
    4.6715   -0.5607    0.8858 C   0  0  0  0  0  0  0  0  0  0  0  0
    5.4881   -2.4447    2.5229 C   0  0  0  0  0  0  0  0  0  0  0  0
    3.2477   -0.0996    1.2375 C   0  0  1  0  0  0  0  0  0  0  0  0
    6.2405   -2.4609    3.6976 C   0  0  0  0  0  0  0  0  0  0  0  0
    6.1605   -0.3333    2.9686 C   0  0  0  0  0  0  0  0  0  0  0  0
    4.9658   -3.6648    2.0448 C   0  0  0  0  0  0  0  0  0  0  0  0
    6.4862   -3.6316    4.4250 C   0  0  0  0  0  0  0  0  0  0  0  0
    2.5478    0.4917    0.0065 C   0  0  0  0  0  0  0  0  0  0  0  0
    5.2023   -4.8447    2.7595 C   0  0  0  0  0  0  0  0  0  0  0  0
    5.9498   -4.8249    3.9338 C   0  0  0  0  0  0  0  0  0  0  0  0
  1 13  1  0  0  0  0
  2 13  2  0  0  0  0
  3  9  1  0  0  0  0
  3 10  1  0  0  0  0
  5  6  1  0  0  0  0
  5  7  1  0  0  0  0
  5 10  2  0  0  0  0
  6  8  1  0  0  0  0
  7  9  1  0  0  0  0
  7 11  2  0  0  0  0
  8  4  1  6  0  0  0
  8 13  1  0  0  0  0
  9 12  2  0  0  0  0
 11 14  1  0  0  0  0
 12 15  1  0  0  0  0
 14 15  2  0  0  0  0
M  END
