598
 OpenBabel10141417533D

 24 25  0  0  1  0  0  0  0  0999 V2000
    0.4560    0.2137    0.0988 O   0  0  0  0  0  0  0  0  0  0  0  0
    3.7905   -2.9152    4.4343 O   0  0  0  0  0  0  0  0  0  0  0  0
    2.3897   -1.1026    5.8588 O   0  0  0  0  0  0  0  0  0  0  0  0
    2.0889    1.8472   -1.6704 N   0  0  0  0  0  0  0  0  0  0  0  0
    0.4167   -0.5157    4.9237 N   0  0  0  0  0  0  0  0  0  0  0  0
    2.8182    3.0786   -2.0577 C   0  0  3  0  0  0  0  0  0  0  0  0
    2.1263    3.6411   -3.3247 C   0  0  0  0  0  0  0  0  0  0  0  0
    2.6365    1.1740   -0.4708 C   0  0  0  0  0  0  0  0  0  0  0  0
    2.7626    4.9240   -3.8776 C   0  0  0  0  0  0  0  0  0  0  0  0
    1.8353   -0.1111   -0.1250 C   0  0  3  0  0  0  0  0  0  0  0  0
    2.8467    4.1128   -0.9271 C   0  0  0  0  0  0  0  0  0  0  0  0
    2.3621   -0.8261    1.1047 C   0  0  0  0  0  0  0  0  0  0  0  0
    2.0871    5.3890   -5.1468 C   0  0  0  0  0  0  0  0  0  0  0  0
    1.8291   -0.5554    2.3788 C   0  0  0  0  0  0  0  0  0  0  0  0
    3.3867   -1.7795    0.9976 C   0  0  0  0  0  0  0  0  0  0  0  0
    2.5251    4.9285   -6.3951 C   0  0  0  0  0  0  0  0  0  0  0  0
    1.0043    6.2784   -5.0928 C   0  0  0  0  0  0  0  0  0  0  0  0
    2.2812   -1.2366    3.5161 C   0  0  0  0  0  0  0  0  0  0  0  0
    3.8465   -2.4601    2.1299 C   0  0  0  0  0  0  0  0  0  0  0  0
    3.2959   -2.1913    3.3822 C   0  0  0  0  0  0  0  0  0  0  0  0
    1.9005    5.3588   -7.5673 C   0  0  0  0  0  0  0  0  0  0  0  0
    0.3816    6.7083   -6.2663 C   0  0  0  0  0  0  0  0  0  0  0  0
    0.8302    6.2491   -7.5030 C   0  0  0  0  0  0  0  0  0  0  0  0
    1.7209   -0.9346    4.8567 C   0  0  0  0  0  0  0  0  0  0  0  0
  1 10  1  0  0  0  0
  2 20  1  0  0  0  0
  3 24  2  0  0  0  0
  4  6  1  0  0  0  0
  4  8  1  0  0  0  0
  5 24  1  0  0  0  0
  6  7  1  0  0  0  0
  6 11  1  0  0  0  0
  7  9  1  0  0  0  0
  8 10  1  0  0  0  0
  9 13  1  0  0  0  0
 10 12  1  0  0  0  0
 12 14  2  0  0  0  0
 12 15  1  0  0  0  0
 13 16  2  0  0  0  0
 13 17  1  0  0  0  0
 14 18  1  0  0  0  0
 15 19  2  0  0  0  0
 16 21  1  0  0  0  0
 17 22  2  0  0  0  0
 18 20  2  0  0  0  0
 18 24  1  0  0  0  0
 19 20  1  0  0  0  0
 21 23  2  0  0  0  0
 22 23  1  0  0  0  0
M  END
