709
 OpenBabel10141417563D

 15 16  0  0  1  0  0  0  0  0999 V2000
   -0.2710   -0.3232    1.7514 S   0  0  0  0  0  0  0  0  0  0  0  0
   -0.4333    0.7871   -0.6771 O   0  0  0  0  0  0  0  0  0  0  0  0
   -2.8189   -0.7273   -0.1270 O   0  0  0  0  0  0  0  0  0  0  0  0
    3.4032   -0.3564   -1.2864 O   0  0  0  0  0  0  0  0  0  0  0  0
    1.2065   -0.3891   -1.9138 N   0  0  0  0  0  0  0  0  0  0  0  0
    2.9468   -1.0208   -3.4079 N   0  0  0  0  0  0  0  0  0  0  0  0
    2.4916   -1.7322   -5.5200 N   0  0  0  0  0  0  0  0  0  0  0  0
    0.8159    0.0826   -0.5873 C   0  0  2  0  0  0  0  0  0  0  0  0
    0.6847   -1.0621    0.4209 C   0  0  0  0  0  0  0  0  0  0  0  0
   -1.0619    0.8407    0.6111 C   0  0  1  0  0  0  0  0  0  0  0  0
   -2.5659    0.5671    0.4312 C   0  0  0  0  0  0  0  0  0  0  0  0
    0.2529   -0.7169   -2.8565 C   0  0  0  0  0  0  0  0  0  0  0  0
    2.5653   -0.5742   -2.1620 C   0  0  0  0  0  0  0  0  0  0  0  0
    0.6023   -1.1617   -4.0599 C   0  0  0  0  0  0  0  0  0  0  0  0
    2.0501   -1.2918   -4.3033 C   0  0  0  0  0  0  0  0  0  0  0  0
  1  9  1  0  0  0  0
  1 10  1  0  0  0  0
  2  8  1  0  0  0  0
  2 10  1  0  0  0  0
  3 11  1  0  0  0  0
  4 13  2  0  0  0  0
  5 12  1  0  0  0  0
  5 13  1  0  0  0  0
  6 13  1  0  0  0  0
  6 15  2  0  0  0  0
  7 15  1  0  0  0  0
  8  5  1  6  0  0  0
  8  9  1  0  0  0  0
 10 11  1  6  0  0  0
 12 14  2  0  0  0  0
 14 15  1  0  0  0  0
M  END
