
 OpenBabel10141417493D

 31 32  0  0  1  0  0  0  0  0999 V2000
    5.2937    6.0063   -2.9495 C   0  0  2  0  0  0  0  0  0  0  0  0
    5.4977    4.5663   -2.4114 C   0  0  1  0  0  0  0  0  0  0  0  0
    5.5278    3.6600   -3.7030 C   0  0  2  0  0  0  0  0  0  0  0  0
    5.8119    5.9732   -4.3723 C   0  0  0  0  0  0  0  0  0  0  0  0
    5.2976    4.6383   -4.8722 C   0  0  1  0  0  0  0  0  0  0  0  0
    4.4784    2.5127   -3.6700 C   0  0  0  0  0  0  0  0  0  0  0  0
    6.7911    5.1285   -0.2490 C   0  0  0  0  0  0  0  0  0  0  0  0
    6.7507    4.3395   -1.5362 C   0  0  0  0  0  0  0  0  0  0  0  0
    5.9024    7.0600   -2.2337 O   0  0  0  0  0  0  0  0  0  0  0  0
    5.9849    4.2398   -6.0438 O   0  0  0  0  0  0  0  0  0  0  0  0
    7.9236    2.4593    1.4539 C   0  0  0  0  0  0  0  0  0  0  0  0
    6.6011    3.2220    1.3945 C   0  0  0  0  0  0  0  0  0  0  0  0
    8.8955    0.1921    1.9261 C   0  0  0  0  0  0  0  0  0  0  0  0
    7.6482    1.0148    1.8477 C   0  0  0  0  0  0  0  0  0  0  0  0
   10.0741   -1.5015    0.7665 C   0  0  0  0  0  0  0  0  0  0  0  0
    9.1692   -0.3800    0.7040 O   0  0  0  0  0  0  0  0  0  0  0  0
    9.2330   -2.7422    1.0639 C   0  0  0  0  0  0  0  0  0  0  0  0
    9.5178    0.0191    2.9435 O   0  0  0  0  0  0  0  0  0  0  0  0
   10.7829   -1.6149   -0.5776 C   0  0  0  0  0  0  0  0  0  0  0  0
    4.4840    1.5865   -4.9047 C   0  0  0  0  0  0  0  0  0  0  0  0
    3.3958    0.4883   -4.9029 C   0  0  1  0  0  0  0  0  0  0  0  0
    3.4571   -0.2387   -6.1323 O   0  0  0  0  0  0  0  0  0  0  0  0
    4.4651   -1.5067   -3.5520 C   0  0  0  0  0  0  0  0  0  0  0  0
    4.2358   -2.3894   -2.3348 C   0  0  0  0  0  0  0  0  0  0  0  0
    3.5627   -3.6170   -2.4454 C   0  0  0  0  0  0  0  0  0  0  0  0
    3.3015   -4.3952   -1.3114 C   0  0  0  0  0  0  0  0  0  0  0  0
    3.7130   -3.9598   -0.0538 C   0  0  0  0  0  0  0  0  0  0  0  0
    4.3815   -2.7437    0.0704 C   0  0  0  0  0  0  0  0  0  0  0  0
    3.3202   -0.4952   -3.7201 C   0  0  0  0  0  0  0  0  0  0  0  0
    6.7711    4.6522    1.0039 C   0  0  0  0  0  0  0  0  0  0  0  0
    4.6426   -1.9643   -1.0616 C   0  0  0  0  0  0  0  0  0  0  0  0
  1  9  1  1  0  0  0
  1  4  1  0  0  0  0
  2  1  1  0  0  0  0
  2  8  1  6  0  0  0
  3  2  1  0  0  0  0
  3  6  1  1  0  0  0
  3  5  1  0  0  0  0
  4  5  1  0  0  0  0
  5 10  1  6  0  0  0
  6 20  1  0  0  0  0
  7  8  1  0  0  0  0
  7 30  2  0  0  0  0
 11 12  1  0  0  0  0
 11 14  1  0  0  0  0
 13 14  1  0  0  0  0
 13 16  1  0  0  0  0
 13 18  2  0  0  0  0
 15 16  1  0  0  0  0
 15 17  1  0  0  0  0
 15 19  1  0  0  0  0
 21 22  1  6  0  0  0
 21 29  1  0  0  0  0
 21 20  1  0  0  0  0
 23 24  1  0  0  0  0
 24 25  2  0  0  0  0
 24 31  1  0  0  0  0
 25 26  1  0  0  0  0
 26 27  2  0  0  0  0
 27 28  1  0  0  0  0
 28 31  2  0  0  0  0
 29 23  1  0  0  0  0
 30 12  1  0  0  0  0
M  END
