480
 OpenBabel10141417473D

 19 21  0  0  1  0  0  0  0  0999 V2000
    0.9166    0.0939   -0.9864 O   0  0  0  0  0  0  0  0  0  0  0  0
    2.1195    2.1848    1.9938 O   0  0  0  0  0  0  0  0  0  0  0  0
    0.2646    5.7644   -0.0255 O   0  0  0  0  0  0  0  0  0  0  0  0
    3.0042    1.0044   -0.4375 N   0  0  0  0  0  0  0  0  0  0  0  0
    1.0904    3.8573    0.8728 N   0  0  0  0  0  0  0  0  0  0  0  0
    6.2327   -1.7728    0.8222 N   0  0  0  0  0  0  0  0  0  0  0  0
    2.6715    2.4225   -0.3723 C   0  0  3  0  0  0  0  0  0  0  0  0
    1.8984    2.9250   -1.5913 C   0  0  0  0  0  0  0  0  0  0  0  0
    4.2509    0.4878    0.1088 C   0  0  0  0  0  0  0  0  0  0  0  0
    4.0817   -0.9905   -0.0033 C   0  0  0  0  0  0  0  0  0  0  0  0
    2.0848   -0.0065   -0.6659 C   0  0  0  0  0  0  0  0  0  0  0  0
    1.6503    4.4183   -1.4506 C   0  0  0  0  0  0  0  0  0  0  0  0
    2.7830   -1.2753   -0.4325 C   0  0  0  0  0  0  0  0  0  0  0  0
    1.9205    2.7605    0.9247 C   0  0  0  0  0  0  0  0  0  0  0  0
    0.9158    4.7334   -0.1687 C   0  0  0  0  0  0  0  0  0  0  0  0
    4.9739   -2.0138    0.2692 C   0  0  0  0  0  0  0  0  0  0  0  0
    2.2986   -2.5611   -0.5684 C   0  0  0  0  0  0  0  0  0  0  0  0
    4.4773   -3.3253    0.1928 C   0  0  0  0  0  0  0  0  0  0  0  0
    3.1646   -3.6003   -0.2402 C   0  0  0  0  0  0  0  0  0  0  0  0
  1 11  2  0  0  0  0
  2 14  2  0  0  0  0
  3 15  2  0  0  0  0
  4  7  1  0  0  0  0
  4  9  1  0  0  0  0
  4 11  1  0  0  0  0
  5 14  1  0  0  0  0
  5 15  1  0  0  0  0
  6 16  1  0  0  0  0
  7  8  1  0  0  0  0
  7 14  1  0  0  0  0
  8 12  1  0  0  0  0
  9 10  1  0  0  0  0
 10 13  2  0  0  0  0
 10 16  1  0  0  0  0
 11 13  1  0  0  0  0
 12 15  1  0  0  0  0
 13 17  1  0  0  0  0
 16 18  2  0  0  0  0
 17 19  2  0  0  0  0
 18 19  1  0  0  0  0
M  END
