
 OpenBabel10141417483D

 34 36  0  0  1  0  0  0  0  0999 V2000
    8.0276   -7.1571   -0.4498 O   0  0  0  0  0  0  0  0  0  0  0  0
    6.1512   -5.7052   -3.8281 O   0  0  0  0  0  0  0  0  0  0  0  0
    3.0486   -0.7405   -8.3058 O   0  0  0  0  0  0  0  0  0  0  0  0
    1.5112    2.9317   -6.9615 O   0  0  0  0  0  0  0  0  0  0  0  0
    1.2669    3.7844   -8.9925 O   0  0  0  0  0  0  0  0  0  0  0  0
   -1.9090    0.8727  -12.1790 O   0  0  0  0  0  0  0  0  0  0  0  0
   -2.8589    2.5266  -11.0106 O   0  0  0  0  0  0  0  0  0  0  0  0
    6.2520   -5.0242   -1.6195 N   0  0  0  0  0  0  0  0  0  0  0  0
    5.8250   -3.1429    0.4529 N   0  0  0  0  0  0  0  0  0  0  0  0
    3.2546   -2.7198   -2.2579 N   0  0  0  0  0  0  0  0  0  0  0  0
    6.2943   -4.8649    2.0346 N   0  0  0  0  0  0  0  0  0  0  0  0
    6.7292   -7.0905    1.4383 N   0  0  0  0  0  0  0  0  0  0  0  0
    1.2163    0.4283   -7.5856 N   0  0  0  0  0  0  0  0  0  0  0  0
    5.9452   -6.5330    3.5411 N   0  0  0  0  0  0  0  0  0  0  0  0
    5.5351   -3.7475   -1.9316 C   0  0  2  0  0  0  0  0  0  0  0  0
    5.9442   -2.6472   -0.9283 C   0  0  0  0  0  0  0  0  0  0  0  0
    3.9922   -3.9512   -1.9521 C   0  0  0  0  0  0  0  0  0  0  0  0
    6.4935   -5.3297   -0.2711 C   0  0  0  0  0  0  0  0  0  0  0  0
    6.2274   -4.4419    0.7244 C   0  0  0  0  0  0  0  0  0  0  0  0
    7.1484   -6.6054    0.2158 C   0  0  0  0  0  0  0  0  0  0  0  0
    6.4687   -5.9129   -2.6605 C   0  0  0  0  0  0  0  0  0  0  0  0
    2.8797   -2.3032   -3.5261 C   0  0  0  0  0  0  0  0  0  0  0  0
    6.3635   -6.1970    2.2957 C   0  0  0  0  0  0  0  0  0  0  0  0
    2.1931   -1.0837   -3.6500 C   0  0  0  0  0  0  0  0  0  0  0  0
    3.2729   -2.9329   -4.7091 C   0  0  0  0  0  0  0  0  0  0  0  0
    1.0856    1.3267   -8.7455 C   0  0  1  0  0  0  0  0  0  0  0  0
   -0.3108    1.1395   -9.3693 C   0  0  0  0  0  0  0  0  0  0  0  0
    2.3645   -1.1214   -6.0722 C   0  0  0  0  0  0  0  0  0  0  0  0
    1.9305   -0.4988   -4.8994 C   0  0  0  0  0  0  0  0  0  0  0  0
    3.0149   -2.3563   -5.9670 C   0  0  0  0  0  0  0  0  0  0  0  0
    2.2515   -0.4701   -7.4206 C   0  0  0  0  0  0  0  0  0  0  0  0
   -0.5203    1.9963  -10.6159 C   0  0  0  0  0  0  0  0  0  0  0  0
    1.3044    2.7835   -8.2869 C   0  0  0  0  0  0  0  0  0  0  0  0
   -1.8836    1.8474  -11.2405 C   0  0  0  0  0  0  0  0  0  0  0  0
  1 20  2  0  0  0  0
  2 21  2  0  0  0  0
  3 31  2  0  0  0  0
  4 33  1  0  0  0  0
  5 33  2  0  0  0  0
  6 34  1  0  0  0  0
  7 34  2  0  0  0  0
  8 15  1  0  0  0  0
  8 18  1  0  0  0  0
  8 21  1  0  0  0  0
  9 16  1  0  0  0  0
  9 19  1  0  0  0  0
 10 17  1  0  0  0  0
 10 22  1  0  0  0  0
 11 19  1  0  0  0  0
 11 23  1  0  0  0  0
 12 20  1  0  0  0  0
 12 23  2  0  0  0  0
 13 31  1  0  0  0  0
 14 23  1  0  0  0  0
 15 16  1  0  0  0  0
 15 17  1  1  0  0  0
 18 19  2  0  0  0  0
 18 20  1  0  0  0  0
 22 24  2  0  0  0  0
 22 25  1  0  0  0  0
 24 29  1  0  0  0  0
 25 30  2  0  0  0  0
 26 13  1  1  0  0  0
 26 27  1  0  0  0  0
 26 33  1  0  0  0  0
 27 32  1  0  0  0  0
 28 29  2  0  0  0  0
 28 30  1  0  0  0  0
 28 31  1  0  0  0  0
 32 34  1  0  0  0  0
M  END
