
 OpenBabel10141417503D

 21 24  0  0  1  0  0  0  0  0999 V2000
    1.2127   -1.4193    0.0730 C   0  0  2  0  0  0  0  0  0  0  0  0
    2.3563   -0.3721    0.0168 C   0  0  2  0  0  0  0  0  0  0  0  0
   -0.1797   -0.7516    0.1907 C   0  0  0  0  0  0  0  0  0  0  0  0
    1.4303   -2.2470    1.3691 C   0  0  0  0  0  0  0  0  0  0  0  0
    1.2592   -2.3231   -1.2024 C   0  0  0  0  0  0  0  0  0  0  0  0
    2.1699    0.6114    1.1852 C   0  0  2  0  0  0  0  0  0  0  0  0
    2.4792    0.2478   -1.3806 C   0  0  0  0  0  0  0  0  0  0  0  0
   -0.3175    0.5833    0.6245 C   0  0  0  0  0  0  0  0  0  0  0  0
   -1.3515   -1.4902   -0.0804 C   0  0  0  0  0  0  0  0  0  0  0  0
    2.3099   -1.5399    2.4176 C   0  0  0  0  0  0  0  0  0  0  0  0
    2.5893   -2.2506   -1.9499 C   0  0  0  0  0  0  0  0  0  0  0  0
    2.1123   -0.0862    2.5076 N   0  0  0  0  0  0  0  0  0  0  0  0
    0.8805    1.4285    0.9873 C   0  0  0  0  0  0  0  0  0  0  0  0
    2.8992   -0.8197   -2.4018 C   0  0  0  0  0  0  0  0  0  0  0  0
   -1.5948    1.1660    0.7063 C   0  0  0  0  0  0  0  0  0  0  0  0
   -2.6072   -0.8959    0.0175 C   0  0  0  0  0  0  0  0  0  0  0  0
    3.0396    0.5403    3.4665 C   0  0  0  0  0  0  0  0  0  0  0  0
   -2.7361    0.4287    0.3996 C   0  0  0  0  0  0  0  0  0  0  0  0
   -3.7465   -1.5936   -0.2577 O   0  0  0  0  0  0  0  0  0  0  0  0
    3.0211   -0.0957    4.8325 C   0  0  0  0  0  0  0  0  0  0  0  0
    4.0893   -0.6364    5.4307 C   0  0  0  0  0  0  0  0  0  0  0  0
  1  2  1  0  0  0  0
  1  3  1  1  0  0  0
  1  4  1  0  0  0  0
  1  5  1  0  0  0  0
  2  6  1  0  0  0  0
  2  7  1  6  0  0  0
  3  8  2  0  0  0  0
  3  9  1  0  0  0  0
  4 10  1  0  0  0  0
  5 11  1  0  0  0  0
  6 12  1  1  0  0  0
  6 13  1  0  0  0  0
  7 14  1  0  0  0  0
  8 15  1  0  0  0  0
  8 13  1  0  0  0  0
  9 16  2  0  0  0  0
 10 12  1  0  0  0  0
 11 14  1  0  0  0  0
 12 17  1  0  0  0  0
 15 18  2  0  0  0  0
 16 19  1  0  0  0  0
 16 18  1  0  0  0  0
 17 20  1  0  0  0  0
 20 21  2  0  0  0  0
M  END
