922
 OpenBabel10141417503D

 21 22  0  0  1  0  0  0  0  0999 V2000
    0.9747   -0.3332    0.0687 O   0  0  0  0  0  0  0  0  0  0  0  0
    4.3802   -1.0656    0.7235 N   0  0  0  0  0  0  0  0  0  0  0  0
    3.0191   -1.0671    0.7488 N   0  0  0  0  0  0  0  0  0  0  0  0
   10.7383   -0.0689    0.1896 N   0  0  0  0  0  0  0  0  0  0  0  0
   11.3608   -1.1664    0.7098 N   0  0  0  0  0  0  0  0  0  0  0  0
   14.1141    0.7782   -0.0281 N   0  0  0  0  0  0  0  0  0  0  0  0
   13.6036   -3.3688    1.8667 N   0  0  0  0  0  0  0  0  0  0  0  0
    4.2274    1.1915   -0.2577 C   0  0  2  0  0  0  0  0  0  0  0  0
    2.9012    0.7515   -0.8531 C   0  0  0  0  0  0  0  0  0  0  0  0
    4.9939   -0.0331    0.2197 C   0  0  0  0  0  0  0  0  0  0  0  0
    4.0558    2.1621    0.9117 C   0  0  0  0  0  0  0  0  0  0  0  0
    6.4953   -0.0263    0.1770 C   0  0  0  0  0  0  0  0  0  0  0  0
    2.1982   -0.2319    0.0363 C   0  0  0  0  0  0  0  0  0  0  0  0
    7.2326    1.0457   -0.3400 C   0  0  0  0  0  0  0  0  0  0  0  0
    7.1864   -1.1264    0.6949 C   0  0  0  0  0  0  0  0  0  0  0  0
    8.6326    1.0091   -0.3513 C   0  0  0  0  0  0  0  0  0  0  0  0
    8.5835   -1.1499    0.6959 C   0  0  0  0  0  0  0  0  0  0  0  0
    9.3259   -0.0994    0.1448 C   0  0  0  0  0  0  0  0  0  0  0  0
   12.6534   -1.1954    0.8105 C   0  0  0  0  0  0  0  0  0  0  0  0
   13.4691   -0.1029    0.3640 C   0  0  0  0  0  0  0  0  0  0  0  0
   13.1704   -2.3968    1.3953 C   0  0  0  0  0  0  0  0  0  0  0  0
  1 13  2  0  0  0  0
  2  3  1  0  0  0  0
  2 10  2  0  0  0  0
  3 13  1  0  0  0  0
  4  5  1  0  0  0  0
  4 18  1  0  0  0  0
  5 19  2  0  0  0  0
  6 20  3  0  0  0  0
  7 21  3  0  0  0  0
  8  9  1  0  0  0  0
  8 10  1  0  0  0  0
  8 11  1  1  0  0  0
  9 13  1  0  0  0  0
 10 12  1  0  0  0  0
 12 14  2  0  0  0  0
 12 15  1  0  0  0  0
 14 16  1  0  0  0  0
 15 17  2  0  0  0  0
 16 18  2  0  0  0  0
 17 18  1  0  0  0  0
 19 20  1  0  0  0  0
 19 21  1  0  0  0  0
M  END
