367
 OpenBabel10141419023D

 23 26  0  0  1  0  0  0  0  0999 V2000
    9.3893   13.9642   -3.5455 O   0  0  0  0  0  0  0  0  0  0  0  0
   10.6184    5.0033    0.9747 O   0  0  0  0  0  0  0  0  0  0  0  0
   10.2195   12.7995   -1.5427 C   0  0  1  0  0  0  0  0  0  0  0  0
    8.7643   12.3019   -1.2817 C   0  0  2  0  0  0  0  0  0  0  0  0
    8.5870   10.8954   -0.6854 C   0  0  1  0  0  0  0  0  0  0  0  0
    9.3933    9.8662   -1.5283 C   0  0  2  0  0  0  0  0  0  0  0  0
    9.8661   14.1768   -2.2121 C   0  0  2  0  0  0  0  0  0  0  0  0
   10.8720   11.7496   -2.4660 C   0  0  0  0  0  0  0  0  0  0  0  0
    8.0689   13.4938   -0.6392 C   0  0  0  0  0  0  0  0  0  0  0  0
   10.8306   10.3362   -1.8557 C   0  0  0  0  0  0  0  0  0  0  0  0
    9.2904    8.4680   -0.8724 C   0  0  2  0  0  0  0  0  0  0  0  0
    8.6727   14.7095   -1.3697 C   0  0  0  0  0  0  0  0  0  0  0  0
    8.7274   10.7261    0.8425 C   0  0  0  0  0  0  0  0  0  0  0  0
   11.0347   13.0096   -0.2201 C   0  0  0  0  0  0  0  0  0  0  0  0
    9.8086    9.7450    1.3042 C   0  0  0  0  0  0  0  0  0  0  0  0
    9.8106    8.4440    0.5480 C   0  0  0  0  0  0  0  0  0  0  0  0
    9.9397    7.3563   -1.7092 C   0  0  0  0  0  0  0  0  0  0  0  0
   12.5569   13.0514   -0.3482 C   0  0  0  0  0  0  0  0  0  0  0  0
   10.9513   15.1668   -2.2832 C   0  0  0  0  0  0  0  0  0  0  0  0
    9.7596    6.0008   -1.0348 C   0  0  0  0  0  0  0  0  0  0  0  0
   10.2642    7.3162    1.1224 C   0  0  0  0  0  0  0  0  0  0  0  0
   10.2641    6.0248    0.3902 C   0  0  0  0  0  0  0  0  0  0  0  0
   11.8057   16.0079   -2.3590 C   0  0  0  0  0  0  0  0  0  0  0  0
  2 22  2  0  0  0  0
  3  4  1  0  0  0  0
  3  7  1  0  0  0  0
  3  8  1  0  0  0  0
  3 14  1  6  0  0  0
  4  5  1  0  0  0  0
  4  9  1  6  0  0  0
  5  6  1  0  0  0  0
  5 13  1  1  0  0  0
  6 10  1  6  0  0  0
  6 11  1  0  0  0  0
  7 12  1  0  0  0  0
  7 19  1  1  0  0  0
  7  1  1  0  0  0  0
  8 10  1  0  0  0  0
  9 12  1  0  0  0  0
 11 16  1  1  0  0  0
 11 17  1  0  0  0  0
 13 15  1  0  0  0  0
 14 18  1  0  0  0  0
 15 16  1  0  0  0  0
 16 21  2  0  0  0  0
 17 20  1  0  0  0  0
 19 23  3  0  0  0  0
 20 22  1  0  0  0  0
 21 22  1  0  0  0  0
M  END
