
 OpenBabel10141417533D

 35 39  0  0  1  0  0  0  0  0999 V2000
    2.7622    1.4735   -5.7718 C   0  0  0  0  0  0  0  0  0  0  0  0
    1.6549    2.3090   -5.8130 C   0  0  0  0  0  0  0  0  0  0  0  0
    1.0770    2.7364   -4.6194 C   0  0  0  0  0  0  0  0  0  0  0  0
    1.6029    2.3207   -3.3686 C   0  0  0  0  0  0  0  0  0  0  0  0
    2.7208    1.4754   -3.3336 C   0  0  0  0  0  0  0  0  0  0  0  0
    3.2816    1.0703   -4.5382 C   0  0  0  0  0  0  0  0  0  0  0  0
    1.0960    2.6811   -2.1128 C   0  0  0  0  0  0  0  0  0  0  0  0
    1.6539    2.2647   -0.9522 N   0  0  0  0  0  0  0  0  0  0  0  0
    2.7317    1.4595   -1.0344 C   0  0  0  0  0  0  0  0  0  0  0  0
    3.2752    1.0433   -2.1942 N   0  0  0  0  0  0  0  0  0  0  0  0
   -0.0939    3.5884   -1.9680 C   0  0  0  0  0  0  0  0  0  0  0  0
    3.3728    1.0331    0.2778 C   0  0  0  0  0  0  0  0  0  0  0  0
    4.5214    0.1431    0.1283 N   0  0  0  0  0  0  0  0  0  0  0  0
    5.7833    0.7415   -0.0176 C   0  0  0  0  0  0  0  0  0  0  0  0
    6.8707   -0.1082   -0.2347 N   0  0  0  0  0  0  0  0  0  0  0  0
    6.6635   -1.4672   -0.3020 C   0  0  0  0  0  0  0  0  0  0  0  0
    5.4285   -2.0134   -0.1393 C   0  0  0  0  0  0  0  0  0  0  0  0
    4.2628   -1.2286    0.0948 C   0  0  0  0  0  0  0  0  0  0  0  0
    3.1485   -1.7142    0.2659 O   0  0  0  0  0  0  0  0  0  0  0  0
    5.9253    1.9650    0.0675 O   0  0  0  0  0  0  0  0  0  0  0  0
    8.2047    0.4380   -0.4026 C   0  0  0  0  0  0  0  0  0  0  0  0
    7.6101   -2.4125   -0.5507 N   0  0  0  0  0  0  0  0  0  0  0  0
    6.9646   -3.5650   -0.5514 C   0  0  0  0  0  0  0  0  0  0  0  0
    5.6188   -3.3677   -0.2776 N   0  0  0  0  0  0  0  0  0  0  0  0
    7.4834   -4.7961   -0.8644 N   0  0  0  0  0  0  0  0  0  0  0  0
    8.5938   -4.7009   -1.8609 C   0  0  0  0  0  0  0  0  0  0  0  0
    9.0333   -6.1036   -2.3527 C   0  0  1  0  0  0  0  0  0  0  0  0
    9.4035   -6.9841   -1.1514 C   0  0  0  0  0  0  0  0  0  0  0  0
    8.2823   -7.0148   -0.1141 C   0  0  0  0  0  0  0  0  0  0  0  0
    7.8905   -5.5978    0.3125 C   0  0  0  0  0  0  0  0  0  0  0  0
    7.9777   -6.7413   -3.1587 N   0  0  0  0  0  0  0  0  0  0  0  0
    4.5766   -4.3803   -0.2589 C   0  0  0  0  0  0  0  0  0  0  0  0
    4.4100   -4.9824    1.0705 C   0  0  0  0  0  0  0  0  0  0  0  0
    4.3102   -5.4922    2.1576 C   0  0  0  0  0  0  0  0  0  0  0  0
    4.2280   -6.1199    3.4748 C   0  0  0  0  0  0  0  0  0  0  0  0
  1  2  1  0  0  0  0
  1  6  2  0  0  0  0
  2  3  2  0  0  0  0
  3  4  1  0  0  0  0
  4  5  2  0  0  0  0
  4  7  1  0  0  0  0
  5  6  1  0  0  0  0
  5 10  1  0  0  0  0
  7  8  2  0  0  0  0
  7 11  1  0  0  0  0
  8  9  1  0  0  0  0
  9 10  2  0  0  0  0
  9 12  1  0  0  0  0
 12 13  1  0  0  0  0
 13 14  1  0  0  0  0
 13 18  1  0  0  0  0
 14 15  1  0  0  0  0
 14 20  2  0  0  0  0
 15 16  1  0  0  0  0
 15 21  1  0  0  0  0
 16 17  2  0  0  0  0
 16 22  1  0  0  0  0
 17 18  1  0  0  0  0
 17 24  1  0  0  0  0
 18 19  2  0  0  0  0
 22 23  2  0  0  0  0
 23 24  1  0  0  0  0
 23 25  1  0  0  0  0
 25 26  1  0  0  0  0
 25 30  1  0  0  0  0
 26 27  1  0  0  0  0
 27 28  1  0  0  0  0
 27 31  1  1  0  0  0
 28 29  1  0  0  0  0
 29 30  1  0  0  0  0
 32 33  1  0  0  0  0
 32 24  1  0  0  0  0
 33 34  3  0  0  0  0
 34 35  1  0  0  0  0
M  END
