
 OpenBabel10141417483D

 12 12  0  0  1  0  0  0  0  0999 V2000
    0.7167    1.2962   -0.2345 C   0  0  2  0  0  0  0  0  0  0  0  0
    1.4549   -0.0011    0.1517 C   0  0  2  0  0  0  0  0  0  0  0  0
    0.7158   -1.2981   -0.2336 C   0  0  1  0  0  0  0  0  0  0  0  0
   -0.7645    1.2652    0.1945 C   0  0  2  0  0  0  0  0  0  0  0  0
   -0.7655   -1.2657    0.1951 C   0  0  1  0  0  0  0  0  0  0  0  0
   -1.5083   -0.0001   -0.2840 C   0  0  1  0  0  0  0  0  0  0  0  0
    0.9081   -1.6323   -1.9917 Cl  0  0  0  0  0  0  0  0  0  0  0  0
   -3.1891    0.0007    0.3873 Cl  0  0  0  0  0  0  0  0  0  0  0  0
    0.9089    1.6290   -1.9928 Cl  0  0  0  0  0  0  0  0  0  0  0  0
    1.7090   -0.0006    1.9454 Cl  0  0  0  0  0  0  0  0  0  0  0  0
   -1.6030    2.7818   -0.3009 Cl  0  0  0  0  0  0  0  0  0  0  0  0
   -1.6052   -2.7819   -0.2998 Cl  0  0  0  0  0  0  0  0  0  0  0  0
  1  9  1  6  0  0  0
  2  1  1  0  0  0  0
  2 10  1  1  0  0  0
  3  2  1  0  0  0  0
  3  7  1  6  0  0  0
  4  1  1  0  0  0  0
  4 11  1  6  0  0  0
  5  3  1  0  0  0  0
  5  6  1  0  0  0  0
  5 12  1  6  0  0  0
  6  4  1  0  0  0  0
  6  8  1  1  0  0  0
M  END
