279
 OpenBabel10141417493D

 23 24  0  0  1  0  0  0  0  0999 V2000
    8.9765    1.4384   -1.9321 I   0  0  0  0  0  0  0  0  0  0  0  0
    3.7390    1.3053    1.2748 I   0  0  0  0  0  0  0  0  0  0  0  0
   10.0493    4.8509    5.0331 I   0  0  0  0  0  0  0  0  0  0  0  0
    7.5490    2.3863    0.7917 O   0  0  0  0  0  0  0  0  0  0  0  0
    2.4290   -1.7113   -2.5249 O   0  0  0  0  0  0  0  0  0  0  0  0
    3.0403   -1.4604   -0.4273 O   0  0  0  0  0  0  0  0  0  0  0  0
    6.9711    4.2680    6.0013 O   0  0  0  0  0  0  0  0  0  0  0  0
    5.0787   -2.2303   -3.2336 N   0  0  0  0  0  0  0  0  0  0  0  0
    5.6373   -2.8356   -0.8462 C   0  0  0  0  0  0  0  0  0  0  0  0
    4.5449   -2.7083   -1.9325 C   0  0  1  0  0  0  0  0  0  0  0  0
    6.2383   -1.5355   -0.3475 C   0  0  0  0  0  0  0  0  0  0  0  0
    5.6536   -0.9117    0.7495 C   0  0  0  0  0  0  0  0  0  0  0  0
    7.2284   -0.8385   -1.0400 C   0  0  0  0  0  0  0  0  0  0  0  0
    6.9789    1.1547    0.4322 C   0  0  0  0  0  0  0  0  0  0  0  0
    7.5950    0.4773   -0.6525 C   0  0  0  0  0  0  0  0  0  0  0  0
    5.9210    0.4422    1.0451 C   0  0  0  0  0  0  0  0  0  0  0  0
    3.3225   -1.8714   -1.5078 C   0  0  0  0  0  0  0  0  0  0  0  0
    7.4926    2.8784    2.0832 C   0  0  0  0  0  0  0  0  0  0  0  0
    8.5807    3.4710    2.7312 C   0  0  0  0  0  0  0  0  0  0  0  0
    6.2777    3.0095    2.7185 C   0  0  0  0  0  0  0  0  0  0  0  0
    8.4310    3.9556    4.0572 C   0  0  0  0  0  0  0  0  0  0  0  0
    6.1039    3.4144    4.0309 C   0  0  0  0  0  0  0  0  0  0  0  0
    7.1992    3.8706    4.7174 C   0  0  0  0  0  0  0  0  0  0  0  0
  1 15  1  0  0  0  0
  2 16  1  0  0  0  0
  3 21  1  0  0  0  0
  4 14  1  0  0  0  0
  4 18  1  0  0  0  0
  5 17  1  0  0  0  0
  6 17  2  0  0  0  0
  7 23  1  0  0  0  0
  9 11  1  0  0  0  0
 10 17  1  1  0  0  0
 10  9  1  0  0  0  0
 10  8  1  0  0  0  0
 11 12  2  0  0  0  0
 11 13  1  0  0  0  0
 12 16  1  0  0  0  0
 13 15  2  0  0  0  0
 14 15  1  0  0  0  0
 14 16  2  0  0  0  0
 18 19  2  0  0  0  0
 18 20  1  0  0  0  0
 19 21  1  0  0  0  0
 20 22  2  0  0  0  0
 21 23  2  0  0  0  0
 22 23  1  0  0  0  0
M  END
