
 OpenBabel10141417483D

 12 12  0  0  0  0  0  0  0  0999 V2000
    2.9494   -0.0146    0.0794 C   0  0  0  0  0  0  0  0  0  0  0  0
    2.1068   -1.5015    2.1414 S   0  0  0  0  0  0  0  0  0  0  0  0
    3.3510    0.9357    1.2018 C   0  0  0  0  0  0  0  0  0  0  0  0
    3.4098   -0.0344    2.7268 S   0  0  0  0  0  0  0  0  0  0  0  0
    1.7147   -0.8261    0.4923 C   0  0  3  0  0  0  0  0  0  0  0  0
    1.3895   -1.9180   -0.5374 C   0  0  0  0  0  0  0  0  0  0  0  0
    0.1499   -2.7494   -0.1859 C   0  0  0  0  0  0  0  0  0  0  0  0
   -0.1405   -3.8056   -1.2587 C   0  0  0  0  0  0  0  0  0  0  0  0
   -1.3635   -4.6609   -0.9293 C   0  0  0  0  0  0  0  0  0  0  0  0
   -2.6278   -3.8547   -0.8240 C   0  0  0  0  0  0  0  0  0  0  0  0
   -2.8903   -2.8205   -1.4249 O   0  0  0  0  0  0  0  0  0  0  0  0
   -3.5234   -4.3983    0.0148 O   0  0  0  0  0  0  0  0  0  0  0  0
  1  3  1  0  0  0  0
  2  4  1  0  0  0  0
  3  4  1  0  0  0  0
  5  1  1  0  0  0  0
  5  2  1  0  0  0  0
  5  6  1  0  0  0  0
  6  7  1  0  0  0  0
  7  8  1  0  0  0  0
  8  9  1  0  0  0  0
  9 10  1  0  0  0  0
 10 12  1  0  0  0  0
 10 11  2  0  0  0  0
M  END
