1255
 OpenBabel10141417523D

 19 19  0  0  0  0  0  0  0  0999 V2000
   -2.3724    4.5736   -4.9406 C   0  0  0  0  0  0  0  0  0  0  0  0
   -2.3598    5.0868   -6.2400 C   0  0  0  0  0  0  0  0  0  0  0  0
   -3.5497    5.2117   -6.9517 C   0  0  0  0  0  0  0  0  0  0  0  0
   -4.7515    4.8204   -6.3650 C   0  0  0  0  0  0  0  0  0  0  0  0
   -4.7646    4.3017   -5.0654 C   0  0  0  0  0  0  0  0  0  0  0  0
   -3.5723    4.1675   -4.3381 C   0  0  0  0  0  0  0  0  0  0  0  0
   -3.5827    3.6131   -2.9230 C   0  0  0  0  0  0  0  0  0  0  0  0
   -2.7106    2.3463   -2.7433 C   0  0  1  0  0  0  0  0  0  0  0  0
   -2.4337    2.0137   -1.3421 N   0  0  0  0  0  0  0  0  0  0  0  0
   -3.3560    1.5542   -0.4278 C   0  0  0  0  0  0  0  0  0  0  0  0
   -2.7545    1.1957    0.9654 C   0  0  2  0  0  0  0  0  0  0  0  0
   -2.0833    2.3815    1.6713 C   0  0  0  0  0  0  0  0  0  0  0  0
   -3.0521    3.5383    1.9103 C   0  0  0  0  0  0  0  0  0  0  0  0
   -2.3679    4.7014    2.6345 C   0  0  0  0  0  0  0  0  0  0  0  0
   -3.3177    5.8775    2.8645 C   0  0  0  0  0  0  0  0  0  0  0  0
   -3.2533    1.1515   -3.5337 C   0  0  0  0  0  0  0  0  0  0  0  0
   -4.5419    1.3974   -0.6862 O   0  0  0  0  0  0  0  0  0  0  0  0
   -1.7506    0.1170    0.8148 N   0  0  0  0  0  0  0  0  0  0  0  0
   -4.4494    5.4852    3.6935 N   0  0  0  0  0  0  0  0  0  0  0  0
  1  2  1  0  0  0  0
  1  6  2  0  0  0  0
  2  3  2  0  0  0  0
  3  4  1  0  0  0  0
  4  5  2  0  0  0  0
  5  6  1  0  0  0  0
  6  7  1  0  0  0  0
  8  7  1  1  0  0  0
  8  9  1  0  0  0  0
  8 16  1  0  0  0  0
  9 10  1  0  0  0  0
 10 17  2  0  0  0  0
 11 18  1  6  0  0  0
 11 12  1  0  0  0  0
 11 10  1  0  0  0  0
 12 13  1  0  0  0  0
 13 14  1  0  0  0  0
 14 15  1  0  0  0  0
 15 19  1  0  0  0  0
M  END
