589
 OpenBabel10141417493D

 25 28  0  0  1  0  0  0  0  0999 V2000
    4.4937   -1.8308   -2.5168 O   0  0  0  0  0  0  0  0  0  0  0  0
    2.5974   -4.5181    0.9107 N   0  0  0  0  0  0  0  0  0  0  0  0
    5.1669   -3.8983   -1.8615 N   0  0  0  0  0  0  0  0  0  0  0  0
    0.8803  -10.1630    1.1952 N   0  0  0  0  0  0  0  0  0  0  0  0
    6.6926   -2.4339   -2.8480 N   0  0  0  0  0  0  0  0  0  0  0  0
    1.9259   -5.6755    0.2495 C   0  0  1  0  0  0  0  0  0  0  0  0
    2.8630   -6.4561   -0.7220 C   0  0  0  0  0  0  0  0  0  0  0  0
    1.1541   -6.4961    1.3565 C   0  0  0  0  0  0  0  0  0  0  0  0
    3.8605   -4.2793   -1.3397 C   0  0  2  0  0  0  0  0  0  0  0  0
    3.6847   -3.8758    0.1457 C   0  0  0  0  0  0  0  0  0  0  0  0
    1.1351   -7.9590    1.1239 C   0  0  0  0  0  0  0  0  0  0  0  0
    2.7413   -7.9272   -0.8472 C   0  0  0  0  0  0  0  0  0  0  0  0
    1.9015   -8.5348    0.0935 C   0  0  0  0  0  0  0  0  0  0  0  0
    3.7402   -5.7664   -1.4795 C   0  0  0  0  0  0  0  0  0  0  0  0
    1.7322   -9.9114    0.1423 C   0  0  0  0  0  0  0  0  0  0  0  0
    1.6554   -3.5336    1.4375 C   0  0  0  0  0  0  0  0  0  0  0  0
    0.5047   -8.9834    1.7943 C   0  0  0  0  0  0  0  0  0  0  0  0
    3.3733   -8.7772   -1.7688 C   0  0  0  0  0  0  0  0  0  0  0  0
    2.3752  -10.7665   -0.7535 C   0  0  0  0  0  0  0  0  0  0  0  0
    3.1928  -10.1666   -1.7190 C   0  0  0  0  0  0  0  0  0  0  0  0
    5.3964   -2.6676   -2.4055 C   0  0  0  0  0  0  0  0  0  0  0  0
    7.7839   -3.4181   -2.8462 C   0  0  0  0  0  0  0  0  0  0  0  0
    7.0048   -1.1101   -3.3949 C   0  0  0  0  0  0  0  0  0  0  0  0
    8.6492   -3.3115   -1.5969 C   0  0  0  0  0  0  0  0  0  0  0  0
    6.6920   -0.9782   -4.8806 C   0  0  0  0  0  0  0  0  0  0  0  0
  1 21  2  0  0  0  0
  2 10  1  0  0  0  0
  2 16  1  0  0  0  0
  3 21  1  0  0  0  0
  4 15  1  0  0  0  0
  4 17  1  0  0  0  0
  5 21  1  0  0  0  0
  5 22  1  0  0  0  0
  5 23  1  0  0  0  0
  6  2  1  1  0  0  0
  6  7  1  0  0  0  0
  6  8  1  0  0  0  0
  7 12  1  0  0  0  0
  7 14  2  0  0  0  0
  8 11  1  0  0  0  0
  9 10  1  0  0  0  0
  9 14  1  0  0  0  0
  9  3  1  1  0  0  0
 11 13  1  0  0  0  0
 11 17  2  0  0  0  0
 12 13  2  0  0  0  0
 12 18  1  0  0  0  0
 13 15  1  0  0  0  0
 15 19  2  0  0  0  0
 18 20  2  0  0  0  0
 19 20  1  0  0  0  0
 22 24  1  0  0  0  0
 23 25  1  0  0  0  0
M  END
