
 OpenBabel10141417483D

 16 17  0  0  1  0  0  0  0  0999 V2000
    4.5152   -0.2048   -0.2632 Cl  0  0  0  0  0  0  0  0  0  0  0  0
    0.0413   -1.0642    2.8030 Cl  0  0  0  0  0  0  0  0  0  0  0  0
    2.2062   -1.7759    0.6212 O   0  0  0  0  0  0  0  0  0  0  0  0
    0.5967   -0.7106   -2.0723 N   0  0  0  0  0  0  0  0  0  0  0  0
    1.6473   -2.7002   -2.4476 N   0  0  0  0  0  0  0  0  0  0  0  0
    1.0358   -2.2075   -0.0714 C   0  0  3  0  0  0  0  0  0  0  0  0
    1.0995   -1.8859   -1.5701 C   0  0  0  0  0  0  0  0  0  0  0  0
    1.0550   -0.5720   -3.4365 C   0  0  0  0  0  0  0  0  0  0  0  0
    1.4718   -2.0108   -3.7551 C   0  0  0  0  0  0  0  0  0  0  0  0
    0.9276   -3.7117    0.1574 C   0  0  0  0  0  0  0  0  0  0  0  0
    2.2022   -0.5209    1.1687 C   0  0  0  0  0  0  0  0  0  0  0  0
    3.2904    0.3086    0.8460 C   0  0  0  0  0  0  0  0  0  0  0  0
    1.2891   -0.0694    2.1350 C   0  0  0  0  0  0  0  0  0  0  0  0
    3.4299    1.5766    1.4207 C   0  0  0  0  0  0  0  0  0  0  0  0
    1.4153    1.2150    2.6850 C   0  0  0  0  0  0  0  0  0  0  0  0
    2.4818    2.0378    2.3286 C   0  0  0  0  0  0  0  0  0  0  0  0
  1 12  1  0  0  0  0
  2 13  1  0  0  0  0
  3  6  1  0  0  0  0
  3 11  1  0  0  0  0
  4  7  1  0  0  0  0
  4  8  1  0  0  0  0
  5  7  2  0  0  0  0
  5  9  1  0  0  0  0
  6  7  1  0  0  0  0
  6 10  1  0  0  0  0
  8  9  1  0  0  0  0
 11 12  2  0  0  0  0
 11 13  1  0  0  0  0
 12 14  1  0  0  0  0
 13 15  2  0  0  0  0
 14 16  2  0  0  0  0
 15 16  1  0  0  0  0
M  END
