1206
 OpenBabel10141417523D

 15 15  0  0  0  0  0  0  0  0999 V2000
    0.0864    3.2615   -4.5951 Cl  0  0  0  0  0  0  0  0  0  0  0  0
    4.8173    2.9227   -3.8577 O   0  0  0  0  0  0  0  0  0  0  0  0
    2.5636    6.7259   -2.9716 O   0  0  0  0  0  0  0  0  0  0  0  0
    5.9647    4.8394   -3.3742 N   0  0  0  0  0  0  0  0  0  0  0  0
    3.6135    4.7963   -3.2522 N   0  0  0  0  0  0  0  0  0  0  0  0
    3.6627    6.1699   -2.9749 N   0  0  0  0  0  0  0  0  0  0  0  0
    7.2981    4.2938   -3.6054 C   0  0  0  0  0  0  0  0  0  0  0  0
    8.3196    4.9901   -2.6944 C   0  0  0  0  0  0  0  0  0  0  0  0
    7.7076    4.4251   -5.0775 C   0  0  0  0  0  0  0  0  0  0  0  0
    8.5726    6.4449   -3.0909 C   0  0  0  0  0  0  0  0  0  0  0  0
    7.9690    5.8734   -5.4932 C   0  0  0  0  0  0  0  0  0  0  0  0
    8.9498    6.5822   -4.5625 C   0  0  0  0  0  0  0  0  0  0  0  0
    4.8010    4.1030   -3.5300 C   0  0  0  0  0  0  0  0  0  0  0  0
    2.3267    4.0867   -3.2603 C   0  0  0  0  0  0  0  0  0  0  0  0
    1.6825    4.0574   -4.6423 C   0  0  0  0  0  0  0  0  0  0  0  0
  1 15  1  0  0  0  0
  2 13  2  0  0  0  0
  3  6  2  0  0  0  0
  4  7  1  0  0  0  0
  4 13  1  0  0  0  0
  5  6  1  0  0  0  0
  5 13  1  0  0  0  0
  5 14  1  0  0  0  0
  7  8  1  0  0  0  0
  7  9  1  0  0  0  0
  8 10  1  0  0  0  0
  9 11  1  0  0  0  0
 10 12  1  0  0  0  0
 11 12  1  0  0  0  0
 14 15  1  0  0  0  0
M  END
