1601
 OpenBabel10141417503D

 46 49  0  0  1  0  0  0  0  0999 V2000
    1.2629    1.9933   -0.5555 O   0  0  0  0  0  0  0  0  0  0  0  0
    3.1861   -1.9929    2.8981 O   0  0  0  0  0  0  0  0  0  0  0  0
    4.1492   -4.6940   -1.2726 O   0  0  0  0  0  0  0  0  0  0  0  0
   -3.3825    2.1715    0.6995 O   0  0  0  0  0  0  0  0  0  0  0  0
   -3.7170   -0.3670    2.2912 O   0  0  0  0  0  0  0  0  0  0  0  0
    4.5909   -3.5156    0.6489 N   0  0  0  0  0  0  0  0  0  0  0  0
    1.4734   -1.9859    1.3726 N   0  0  0  0  0  0  0  0  0  0  0  0
   -1.6433    1.2991   -0.4476 N   0  0  0  0  0  0  0  0  0  0  0  0
    6.2810   -4.5038   -0.6281 N   0  0  0  0  0  0  0  0  0  0  0  0
    0.6614   -0.8940    1.9411 C   0  0  2  0  0  0  0  0  0  0  0  0
    3.2154   -3.7522    1.1798 C   0  0  1  0  0  0  0  0  0  0  0  0
    1.0262    0.4961    1.3348 C   0  0  0  0  0  0  0  0  0  0  0  0
    0.8549    0.6645   -0.2115 C   0  0  1  0  0  0  0  0  0  0  0  0
    3.1885   -5.0372    2.0888 C   0  0  0  0  0  0  0  0  0  0  0  0
   -0.5604    0.3628   -0.8340 C   0  0  2  0  0  0  0  0  0  0  0  0
    0.5242   -0.8915    3.5120 C   0  0  0  0  0  0  0  0  0  0  0  0
    2.6349   -2.4974    1.9100 C   0  0  0  0  0  0  0  0  0  0  0  0
    5.5789   -2.8251    1.4839 C   0  0  0  0  0  0  0  0  0  0  0  0
    7.0016   -2.8706    0.9343 C   0  0  0  0  0  0  0  0  0  0  0  0
   -0.5204    0.0249   -2.3814 C   0  0  0  0  0  0  0  0  0  0  0  0
    4.9430   -4.2389   -0.4852 C   0  0  0  0  0  0  0  0  0  0  0  0
    1.8205   -5.3203    2.7136 C   0  0  0  0  0  0  0  0  0  0  0  0
    3.5647   -6.3307    1.3451 C   0  0  0  0  0  0  0  0  0  0  0  0
    7.2363   -4.2630    0.4124 C   0  0  0  0  0  0  0  0  0  0  0  0
   -0.1876   -2.0622    4.1985 C   0  0  0  0  0  0  0  0  0  0  0  0
   -0.4306    1.0625   -3.4872 C   0  0  0  0  0  0  0  0  0  0  0  0
   -2.5903    1.2426    0.5629 C   0  0  0  0  0  0  0  0  0  0  0  0
   -0.7502   -3.1416    3.5101 C   0  0  0  0  0  0  0  0  0  0  0  0
   -0.3230   -2.0619    5.6006 C   0  0  0  0  0  0  0  0  0  0  0  0
   -1.4111    1.1195   -4.4994 C   0  0  0  0  0  0  0  0  0  0  0  0
    0.6747    1.9091   -3.6196 C   0  0  0  0  0  0  0  0  0  0  0  0
   -2.5871    0.0487    1.5438 C   0  0  0  0  0  0  0  0  0  0  0  0
   -1.4450   -4.1619    4.1776 C   0  0  0  0  0  0  0  0  0  0  0  0
   -0.9832   -3.1010    6.2762 C   0  0  0  0  0  0  0  0  0  0  0  0
   -1.5608   -4.1444    5.5617 C   0  0  0  0  0  0  0  0  0  0  0  0
   -1.3204    2.0395   -5.5547 C   0  0  0  0  0  0  0  0  0  0  0  0
    0.7499    2.8536   -4.6520 C   0  0  0  0  0  0  0  0  0  0  0  0
   -0.2509    2.9260   -5.6156 C   0  0  0  0  0  0  0  0  0  0  0  0
   -4.6355   -1.2215    1.7337 C   0  0  0  0  0  0  0  0  0  0  0  0
   -4.3768   -2.3027    0.8624 C   0  0  0  0  0  0  0  0  0  0  0  0
   -5.9614   -1.0648    2.2082 C   0  0  0  0  0  0  0  0  0  0  0  0
   -5.4590   -3.0029    0.2877 C   0  0  0  0  0  0  0  0  0  0  0  0
   -7.0171   -1.7841    1.6199 C   0  0  0  0  0  0  0  0  0  0  0  0
   -3.0460   -2.9831    0.6943 C   0  0  0  0  0  0  0  0  0  0  0  0
   -6.3095   -0.2164    3.4054 C   0  0  0  0  0  0  0  0  0  0  0  0
   -6.7707   -2.7235    0.6348 C   0  0  0  0  0  0  0  0  0  0  0  0
  2 17  2  0  0  0  0
  3 21  2  0  0  0  0
  4 27  2  0  0  0  0
  5 32  1  0  0  0  0
  5 39  1  0  0  0  0
  6 18  1  0  0  0  0
  6 21  1  0  0  0  0
  7 17  1  0  0  0  0
  8 27  1  0  0  0  0
  9 21  1  0  0  0  0
  9 24  1  0  0  0  0
 10  7  1  1  0  0  0
 10 12  1  0  0  0  0
 10 16  1  0  0  0  0
 11  6  1  1  0  0  0
 11 14  1  0  0  0  0
 11 17  1  0  0  0  0
 12 13  1  0  0  0  0
 13  1  1  1  0  0  0
 13 15  1  0  0  0  0
 14 22  1  0  0  0  0
 14 23  1  0  0  0  0
 15  8  1  6  0  0  0
 15 20  1  0  0  0  0
 16 25  1  0  0  0  0
 18 19  1  0  0  0  0
 19 24  1  0  0  0  0
 20 26  1  0  0  0  0
 25 28  2  0  0  0  0
 25 29  1  0  0  0  0
 26 30  2  0  0  0  0
 26 31  1  0  0  0  0
 27 32  1  0  0  0  0
 28 33  1  0  0  0  0
 29 34  2  0  0  0  0
 30 36  1  0  0  0  0
 31 37  2  0  0  0  0
 33 35  2  0  0  0  0
 34 35  1  0  0  0  0
 36 38  2  0  0  0  0
 37 38  1  0  0  0  0
 39 40  2  0  0  0  0
 39 41  1  0  0  0  0
 40 42  1  0  0  0  0
 40 44  1  0  0  0  0
 41 43  2  0  0  0  0
 41 45  1  0  0  0  0
 42 46  2  0  0  0  0
 43 46  1  0  0  0  0
M  END
