455
 OpenBabel10141417503D

 27 30  0  0  0  0  0  0  0  0999 V2000
    0.9072    0.0769   -0.0181 Cl  0  0  0  0  0  0  0  0  0  0  0  0
   10.9605   -3.1723   -2.7224 O   0  0  0  0  0  0  0  0  0  0  0  0
    9.1207   -4.1347   -3.6705 O   0  0  0  0  0  0  0  0  0  0  0  0
    8.9493   -2.9722   -1.6873 N   0  0  0  0  0  0  0  0  0  0  0  0
    8.5179    0.2924    1.8635 N   0  0  0  0  0  0  0  0  0  0  0  0
    7.5854   -0.6064   -0.8247 C   0  0  0  0  0  0  0  0  0  0  0  0
    6.9711   -1.5191   -1.8895 C   0  0  0  0  0  0  0  0  0  0  0  0
    9.1090   -0.6486   -0.9321 C   0  0  0  0  0  0  0  0  0  0  0  0
    6.8929    0.0979    0.1105 C   0  0  0  0  0  0  0  0  0  0  0  0
    7.4876   -2.9564   -1.7014 C   0  0  0  0  0  0  0  0  0  0  0  0
    9.5687   -2.0881   -0.6934 C   0  0  0  0  0  0  0  0  0  0  0  0
    5.4136    0.0758    0.0884 C   0  0  0  0  0  0  0  0  0  0  0  0
    7.5917    0.9494    1.1100 C   0  0  0  0  0  0  0  0  0  0  0  0
    4.7290    1.2366   -0.3087 C   0  0  0  0  0  0  0  0  0  0  0  0
    5.5139    2.4773   -0.6596 C   0  0  0  0  0  0  0  0  0  0  0  0
    6.2137    3.0884    0.5627 C   0  0  0  0  0  0  0  0  0  0  0  0
    7.2863    2.3046    1.2929 C   0  0  0  0  0  0  0  0  0  0  0  0
    4.7000   -1.0619    0.4903 C   0  0  0  0  0  0  0  0  0  0  0  0
    9.6381   -3.4811   -2.7684 C   0  0  0  0  0  0  0  0  0  0  0  0
    3.3281    1.2273   -0.3434 C   0  0  0  0  0  0  0  0  0  0  0  0
    8.0134    2.9910    2.2822 C   0  0  0  0  0  0  0  0  0  0  0  0
    3.3059   -1.0625    0.4527 C   0  0  0  0  0  0  0  0  0  0  0  0
    2.6275    0.0789    0.0304 C   0  0  0  0  0  0  0  0  0  0  0  0
    8.9802    2.3366    3.0369 C   0  0  0  0  0  0  0  0  0  0  0  0
    9.1902    0.9954    2.7959 C   0  0  0  0  0  0  0  0  0  0  0  0
   11.7830   -3.7226   -3.7570 C   0  0  0  0  0  0  0  0  0  0  0  0
   12.2064   -5.1253   -3.3668 C   0  0  0  0  0  0  0  0  0  0  0  0
  1 23  1  0  0  0  0
  2 19  1  0  0  0  0
  2 26  1  0  0  0  0
  3 19  2  0  0  0  0
  4 10  1  0  0  0  0
  4 11  1  0  0  0  0
  4 19  1  0  0  0  0
  5 13  1  0  0  0  0
  5 25  2  0  0  0  0
  6  7  1  0  0  0  0
  6  8  1  0  0  0  0
  6  9  2  0  0  0  0
  7 10  1  0  0  0  0
  8 11  1  0  0  0  0
  9 12  1  0  0  0  0
  9 13  1  0  0  0  0
 12 14  2  0  0  0  0
 12 18  1  0  0  0  0
 13 17  2  0  0  0  0
 14 15  1  0  0  0  0
 14 20  1  0  0  0  0
 15 16  1  0  0  0  0
 16 17  1  0  0  0  0
 17 21  1  0  0  0  0
 18 22  2  0  0  0  0
 20 23  2  0  0  0  0
 21 24  2  0  0  0  0
 22 23  1  0  0  0  0
 24 25  1  0  0  0  0
 26 27  1  0  0  0  0
M  END
