227
 OpenBabel10141417483D

 29 31  0  0  1  0  0  0  0  0999 V2000
    1.7069    6.9722    0.2112 O   0  0  0  0  0  0  0  0  0  0  0  0
    1.1235   12.7383   -0.4618 O   0  0  0  0  0  0  0  0  0  0  0  0
   -1.3383   12.8053   -2.8980 O   0  0  0  0  0  0  0  0  0  0  0  0
    3.2824    5.3117    0.0114 O   0  0  0  0  0  0  0  0  0  0  0  0
    0.0601   14.3372    0.6933 O   0  0  0  0  0  0  0  0  0  0  0  0
    3.4697    8.4015    1.3388 C   0  0  1  0  0  0  0  0  0  0  0  0
    3.5799    9.1814   -0.0147 C   0  0  2  0  0  0  0  0  0  0  0  0
    2.2025    7.5022    1.4680 C   0  0  2  0  0  0  0  0  0  0  0  0
    4.9504    9.9137   -0.1253 C   0  0  2  0  0  0  0  0  0  0  0  0
    4.7284    7.6517    1.7372 C   0  0  0  0  0  0  0  0  0  0  0  0
    2.3574   10.1188   -0.2029 C   0  0  0  0  0  0  0  0  0  0  0  0
    2.2303    6.4231    2.5703 C   0  0  0  0  0  0  0  0  0  0  0  0
    3.4128    6.5524    3.5346 C   0  0  2  0  0  0  0  0  0  0  0  0
    4.6911    6.7968    2.7752 C   0  0  0  0  0  0  0  0  0  0  0  0
    2.3502   10.9457   -1.5002 C   0  0  0  0  0  0  0  0  0  0  0  0
    6.0864    8.9798    0.2094 C   0  0  0  0  0  0  0  0  0  0  0  0
    5.9662    7.9475    1.0540 C   0  0  0  0  0  0  0  0  0  0  0  0
    5.0772   11.1712    0.7434 C   0  0  0  0  0  0  0  0  0  0  0  0
    1.0997   11.8431   -1.5902 C   0  0  2  0  0  0  0  0  0  0  0  0
    3.5126    5.3071    4.4159 C   0  0  0  0  0  0  0  0  0  0  0  0
    1.0662   12.6178   -2.9001 C   0  0  0  0  0  0  0  0  0  0  0  0
   -0.1262   13.5557   -2.8902 C   0  0  2  0  0  0  0  0  0  0  0  0
    2.2828    5.9007   -0.3885 C   0  0  0  0  0  0  0  0  0  0  0  0
   -0.1060   14.4670   -1.6808 C   0  0  0  0  0  0  0  0  0  0  0  0
    1.5061    5.4610   -1.6284 C   0  0  2  0  0  0  0  0  0  0  0  0
    0.3076   13.8133   -0.3906 C   0  0  0  0  0  0  0  0  0  0  0  0
    2.4505    5.4311   -2.8400 C   0  0  0  0  0  0  0  0  0  0  0  0
    0.2628    6.3174   -1.8862 C   0  0  0  0  0  0  0  0  0  0  0  0
    1.8039    4.8623   -4.0963 C   0  0  0  0  0  0  0  0  0  0  0  0
  1 23  1  0  0  0  0
  2 19  1  0  0  0  0
  2 26  1  0  0  0  0
  4 23  2  0  0  0  0
  5 26  2  0  0  0  0
  6  7  1  0  0  0  0
  6  8  1  0  0  0  0
  6 10  1  6  0  0  0
  7  9  1  0  0  0  0
  7 11  1  1  0  0  0
  8 12  1  0  0  0  0
  8  1  1  6  0  0  0
  9 16  1  0  0  0  0
  9 18  1  1  0  0  0
 10 14  2  0  0  0  0
 10 17  1  0  0  0  0
 11 15  1  0  0  0  0
 12 13  1  0  0  0  0
 13 14  1  0  0  0  0
 13 20  1  6  0  0  0
 16 17  2  0  0  0  0
 19 21  1  0  0  0  0
 19 15  1  6  0  0  0
 21 22  1  0  0  0  0
 22  3  1  1  0  0  0
 22 24  1  0  0  0  0
 24 26  1  0  0  0  0
 25 28  1  6  0  0  0
 25 27  1  0  0  0  0
 25 23  1  0  0  0  0
 27 29  1  0  0  0  0
M  END
