
 OpenBabel10141417483D

 35 41  0  0  1  0  0  0  0  0999 V2000
    2.9692    4.2678    2.3836 O   0  0  0  0  0  0  0  0  0  0  0  0
    3.5937    3.2337    2.4449 C   0  0  0  0  0  0  0  0  0  0  0  0
    3.5695    2.1783    1.5643 N   0  0  0  0  0  0  0  0  0  0  0  0
    4.4215    1.1674    1.8660 C   0  0  0  0  0  0  0  0  0  0  0  0
    4.6722    0.1991    1.1910 O   0  0  0  0  0  0  0  0  0  0  0  0
    5.0575    1.4665    3.1994 C   0  0  1  0  0  0  0  0  0  0  0  0
    4.5923    2.8929    3.5246 C   0  0  2  0  0  0  0  0  0  0  0  0
    5.9043    3.6870    3.5100 C   0  0  2  0  0  0  0  0  0  0  0  0
    6.5351    3.7274    2.1003 C   0  0  0  0  0  0  0  0  0  0  0  0
    7.0788    2.3026    1.9153 C   0  0  0  0  0  0  0  0  0  0  0  0
    6.5895    1.5876    3.1862 C   0  0  1  0  0  0  0  0  0  0  0  0
    6.8206    2.6891    4.2280 C   0  0  0  0  0  0  0  0  0  0  0  0
    2.6215    2.1297    0.4501 C   0  0  0  0  0  0  0  0  0  0  0  0
    1.2384    1.6466    0.9620 C   0  0  2  0  0  0  0  0  0  0  0  0
    1.2156    0.1583    1.3598 C   0  0  0  0  0  0  0  0  0  0  0  0
    1.1305   -0.8280    0.2012 C   0  0  0  0  0  0  0  0  0  0  0  0
    0.0736   -0.4545   -0.8302 C   0  0  0  0  0  0  0  0  0  0  0  0
    0.0750    1.0266   -1.2105 C   0  0  0  0  0  0  0  0  0  0  0  0
    0.0880    2.0008   -0.0081 C   0  0  1  0  0  0  0  0  0  0  0  0
   -1.3160    2.0506    0.6874 C   0  0  0  0  0  0  0  0  0  0  0  0
   -1.4621    2.8666    1.9107 N   0  0  0  0  0  0  0  0  0  0  0  0
   -2.8377    2.7848    2.4705 C   0  0  0  0  0  0  0  0  0  0  0  0
   -3.8845    3.5707    1.6553 C   0  0  0  0  0  0  0  0  0  0  0  0
   -3.5560    5.0077    1.7004 N   0  0  0  0  0  0  0  0  0  0  0  0
   -4.5362    5.8535    1.2342 C   0  0  0  0  0  0  0  0  0  0  0  0
   -5.4891    5.4750    0.3823 N   0  0  0  0  0  0  0  0  0  0  0  0
   -6.4940    6.7420    0.0740 S   0  0  0  0  0  0  0  0  0  0  0  0
   -5.7210    7.8622    1.1154 C   0  0  0  0  0  0  0  0  0  0  0  0
   -6.0650    9.1915    1.4095 C   0  0  0  0  0  0  0  0  0  0  0  0
   -5.2657    9.8981    2.3122 C   0  0  0  0  0  0  0  0  0  0  0  0
   -4.1548    9.3037    2.8965 C   0  0  0  0  0  0  0  0  0  0  0  0
   -3.8286    7.9790    2.6000 C   0  0  0  0  0  0  0  0  0  0  0  0
   -4.6175    7.2294    1.6914 C   0  0  0  0  0  0  0  0  0  0  0  0
   -2.1828    5.2802    1.2136 C   0  0  0  0  0  0  0  0  0  0  0  0
   -1.1217    4.3020    1.7949 C   0  0  0  0  0  0  0  0  0  0  0  0
  1  2  2  0  0  0  0
  2  3  1  0  0  0  0
  3  4  1  0  0  0  0
  3 13  1  0  0  0  0
  4  5  2  0  0  0  0
  6  4  1  1  0  0  0
  6  7  1  0  0  0  0
  6 11  1  0  0  0  0
  7  2  1  1  0  0  0
  7  8  1  0  0  0  0
  8  9  1  6  0  0  0
  8 12  1  0  0  0  0
  9 10  1  0  0  0  0
 11 10  1  6  0  0  0
 11 12  1  0  0  0  0
 14 13  1  6  0  0  0
 14 15  1  0  0  0  0
 14 19  1  0  0  0  0
 15 16  1  0  0  0  0
 16 17  1  0  0  0  0
 17 18  1  0  0  0  0
 18 19  1  0  0  0  0
 19 20  1  1  0  0  0
 20 21  1  0  0  0  0
 21 22  1  0  0  0  0
 21 35  1  0  0  0  0
 22 23  1  0  0  0  0
 23 24  1  0  0  0  0
 24 25  1  0  0  0  0
 24 34  1  0  0  0  0
 25 26  2  0  0  0  0
 25 33  1  0  0  0  0
 26 27  1  0  0  0  0
 27 28  1  0  0  0  0
 28 29  2  0  0  0  0
 28 33  1  0  0  0  0
 29 30  1  0  0  0  0
 30 31  2  0  0  0  0
 31 32  1  0  0  0  0
 32 33  2  0  0  0  0
 34 35  1  0  0  0  0
M  END
