
 OpenBabel10141417513D

 43 46  0  0  1  0  0  0  0  0999 V2000
   -9.7655   14.7759    9.9600 C   0  0  0  0  0  0  0  0  0  0  0  0
  -10.3772   16.0262    9.9846 C   0  0  0  0  0  0  0  0  0  0  0  0
  -10.5303   16.7401    8.7983 C   0  0  0  0  0  0  0  0  0  0  0  0
  -10.0763   16.2066    7.5807 C   0  0  0  0  0  0  0  0  0  0  0  0
   -9.4949   14.9247    7.5350 C   0  0  0  0  0  0  0  0  0  0  0  0
   -9.3242   14.2317    8.7503 C   0  0  0  0  0  0  0  0  0  0  0  0
  -10.2211   16.9789    6.3264 C   0  0  0  0  0  0  0  0  0  0  0  0
  -10.4243   16.1862    5.0910 C   0  0  0  0  0  0  0  0  0  0  0  0
   -9.9234   14.7798    5.0120 C   0  0  1  0  0  0  0  0  0  0  0  0
   -9.0114   14.3345    6.2088 C   0  0  1  0  0  0  0  0  0  0  0  0
  -11.1233   16.7138    4.0693 C   0  0  0  0  0  0  0  0  0  0  0  0
  -11.3897   15.9222    2.7915 C   0  0  1  0  0  0  0  0  0  0  0  0
  -10.1497   15.1146    2.3639 C   0  0  1  0  0  0  0  0  0  0  0  0
   -9.3314   14.5255    3.5927 C   0  0  0  0  0  0  0  0  0  0  0  0
  -12.6398   15.0176    2.9994 C   0  0  0  0  0  0  0  0  0  0  0  0
  -12.4615   13.5229    2.9324 C   0  0  0  0  0  0  0  0  0  0  0  0
  -11.4807   13.0567    2.1292 C   0  0  0  0  0  0  0  0  0  0  0  0
  -10.5398   13.9794    1.3585 C   0  0  1  0  0  0  0  0  0  0  0  0
  -11.1715   17.9461    8.8304 O   0  0  0  0  0  0  0  0  0  0  0  0
  -10.1921   18.2032    6.2746 O   0  0  0  0  0  0  0  0  0  0  0  0
  -11.6255   18.0104    4.0831 O   0  0  0  0  0  0  0  0  0  0  0  0
  -13.7556   15.5005    3.2055 O   0  0  0  0  0  0  0  0  0  0  0  0
  -11.2268   11.6967    1.9865 O   0  0  0  0  0  0  0  0  0  0  0  0
  -13.3257   12.6416    3.7847 C   0  0  0  0  0  0  0  0  0  0  0  0
  -13.3550   11.3092    3.4557 N   0  0  0  0  0  0  0  0  0  0  0  0
  -13.9071   13.0838    4.7693 O   0  0  0  0  0  0  0  0  0  0  0  0
  -14.0493   10.3264    4.2223 C   0  0  0  0  0  0  0  0  0  0  0  0
  -13.0727    9.7955    5.1533 N   0  0  0  0  0  0  0  0  0  0  0  0
  -13.6794    8.7509    5.9795 C   0  0  0  0  0  0  0  0  0  0  0  0
  -12.6480    8.1914    6.9631 C   0  0  0  0  0  0  0  0  0  0  0  0
  -13.2183    7.0956    7.8732 C   0  0  0  0  0  0  0  0  0  0  0  0
  -13.7064    5.8643    7.0945 C   0  0  0  0  0  0  0  0  0  0  0  0
  -14.2346    4.7348    7.9900 C   0  0  2  0  0  0  0  0  0  0  0  0
  -13.1984    4.3039    8.9400 N   0  0  0  0  0  0  0  0  0  0  0  0
  -14.7321    3.5730    7.0995 C   0  0  0  0  0  0  0  0  0  0  0  0
  -15.5902    3.6820    6.2575 O   0  0  0  0  0  0  0  0  0  0  0  0
  -14.1007    2.3905    7.3500 O   0  0  0  0  0  0  0  0  0  0  0  0
   -7.5212   14.6469    6.0330 C   0  0  0  0  0  0  0  0  0  0  0  0
   -9.1126   12.8999    6.2707 O   0  0  0  0  0  0  0  0  0  0  0  0
  -11.1601   14.3020    0.0489 N   0  0  0  0  0  0  0  0  0  0  0  0
  -11.3967   13.1052   -0.7743 C   0  0  0  0  0  0  0  0  0  0  0  0
  -10.4156   15.2720   -0.7583 C   0  0  0  0  0  0  0  0  0  0  0  0
  -11.6700   16.8905    1.7738 O   0  0  0  0  0  0  0  0  0  0  0  0
  1  2  2  0  0  0  0
  1  6  1  0  0  0  0
  2  3  1  0  0  0  0
  3  4  2  0  0  0  0
  3 19  1  0  0  0  0
  4  5  1  0  0  0  0
  4  7  1  0  0  0  0
  5  6  2  0  0  0  0
  5 10  1  0  0  0  0
  7  8  1  0  0  0  0
  7 20  2  0  0  0  0
  8 11  2  0  0  0  0
  9  8  1  6  0  0  0
  9 10  1  0  0  0  0
  9 14  1  0  0  0  0
 10 38  1  6  0  0  0
 10 39  1  0  0  0  0
 11 12  1  0  0  0  0
 11 21  1  0  0  0  0
 12 13  1  0  0  0  0
 12 15  1  0  0  0  0
 12 43  1  6  0  0  0
 13 14  1  1  0  0  0
 13 18  1  0  0  0  0
 15 16  1  0  0  0  0
 15 22  2  0  0  0  0
 16 17  2  0  0  0  0
 16 24  1  0  0  0  0
 17 18  1  0  0  0  0
 17 23  1  0  0  0  0
 18 40  1  6  0  0  0
 24 25  1  0  0  0  0
 24 26  2  0  0  0  0
 25 27  1  0  0  0  0
 27 28  1  0  0  0  0
 28 29  1  0  0  0  0
 29 30  1  0  0  0  0
 30 31  1  0  0  0  0
 31 32  1  0  0  0  0
 33 35  1  6  0  0  0
 33 34  1  0  0  0  0
 33 32  1  0  0  0  0
 35 36  2  0  0  0  0
 35 37  1  0  0  0  0
 40 41  1  0  0  0  0
 40 42  1  0  0  0  0
M  END
