
 OpenBabel10141417583D

 32 34  0  0  0  0  0  0  0  0999 V2000
    0.7276    4.4843   -0.3739 C   0  0  0  0  0  0  0  0  0  0  0  0
    0.1045    4.2205    0.9929 C   0  0  0  0  0  0  0  0  0  0  0  0
   -0.8855    3.1438    0.9034 N   0  0  0  0  0  0  0  0  0  0  0  0
   -1.5370    2.6047    2.3530 S   0  0  0  0  0  0  0  0  0  0  0  0
    1.5458    3.3122   -0.8968 C   0  0  0  0  0  0  0  0  0  0  0  0
   -0.2772    1.5795    2.7831 N   0  0  0  0  0  0  0  0  0  0  0  0
   -1.5643    3.7177    3.2727 O   0  0  0  0  0  0  0  0  0  0  0  0
   -2.7243    1.8593    2.0266 O   0  0  0  0  0  0  0  0  0  0  0  0
   -0.6777    0.4880    3.5924 C   0  0  0  0  0  0  0  0  0  0  0  0
   -0.7309    0.9131    4.8723 N   0  0  0  0  0  0  0  0  0  0  0  0
   -1.0551   -0.0070    5.7705 C   0  0  0  0  0  0  0  0  0  0  0  0
   -1.3152   -1.2772    5.4938 N   0  0  0  0  0  0  0  0  0  0  0  0
   -1.2422   -1.6488    4.1910 C   0  0  0  0  0  0  0  0  0  0  0  0
   -0.9035   -0.8100    3.1232 C   0  0  0  0  0  0  0  0  0  0  0  0
   -1.5588   -2.9678    3.9311 O   0  0  0  0  0  0  0  0  0  0  0  0
   -1.7291   -3.7689    5.1111 C   0  0  0  0  0  0  0  0  0  0  0  0
   -2.0420   -5.1983    4.6906 C   0  0  0  0  0  0  0  0  0  0  0  0
   -0.9254   -5.7344    3.9757 O   0  0  0  0  0  0  0  0  0  0  0  0
   -2.4894   -6.5722    2.4402 N   0  0  0  0  0  0  0  0  0  0  0  0
   -1.2928   -6.6752    3.0428 C   0  0  0  0  0  0  0  0  0  0  0  0
   -0.3671   -7.6065    2.7708 N   0  0  0  0  0  0  0  0  0  0  0  0
   -0.7076   -8.5187    1.8343 C   0  0  0  0  0  0  0  0  0  0  0  0
   -1.9114   -8.5153    1.1681 C   0  0  0  0  0  0  0  0  0  0  0  0
   -2.7751   -7.5054    1.5088 C   0  0  0  0  0  0  0  0  0  0  0  0
   -2.3539   -9.8055   -0.1198 Br  0  0  0  0  0  0  0  0  0  0  0  0
   -0.0842   -3.0209    0.0625 C   0  0  0  0  0  0  0  0  0  0  0  0
   -0.2810   -2.5819    1.3848 C   0  0  0  0  0  0  0  0  0  0  0  0
   -0.7231   -1.2788    1.6997 C   0  0  0  0  0  0  0  0  0  0  0  0
   -0.9576   -0.4582    0.5795 C   0  0  0  0  0  0  0  0  0  0  0  0
   -0.7496   -0.8714   -0.7456 C   0  0  0  0  0  0  0  0  0  0  0  0
   -0.3118   -2.1541   -1.0000 C   0  0  0  0  0  0  0  0  0  0  0  0
   -0.0238   -2.7139   -2.7794 Br  0  0  0  0  0  0  0  0  0  0  0  0
  1  2  1  0  0  0  0
  1  5  1  0  0  0  0
  2  3  1  0  0  0  0
  3  4  1  0  0  0  0
  4  6  1  0  0  0  0
  4  7  2  0  0  0  0
  4  8  2  0  0  0  0
  6  9  1  0  0  0  0
  9 10  1  0  0  0  0
  9 14  2  0  0  0  0
 10 11  2  0  0  0  0
 11 12  1  0  0  0  0
 12 13  2  0  0  0  0
 13 14  1  0  0  0  0
 13 15  1  0  0  0  0
 14 28  1  0  0  0  0
 15 16  1  0  0  0  0
 16 17  1  0  0  0  0
 17 18  1  0  0  0  0
 18 20  1  0  0  0  0
 19 20  1  0  0  0  0
 19 24  2  0  0  0  0
 20 21  2  0  0  0  0
 21 22  1  0  0  0  0
 22 23  2  0  0  0  0
 23 24  1  0  0  0  0
 23 25  1  0  0  0  0
 26 27  2  0  0  0  0
 26 31  1  0  0  0  0
 27 28  1  0  0  0  0
 28 29  2  0  0  0  0
 29 30  1  0  0  0  0
 30 31  2  0  0  0  0
 31 32  1  0  0  0  0
M  END
