
 OpenBabel10141417483D

  6  4  0  0  0  0  0  0  0  0999 V2000
    0.8160   -0.5997    0.6654 Mg  0  2  0  0  0 15  0  0  0  0  0  0
    1.4810    0.4908   -0.5271 O   0  5  0  0  0  0  0  0  0  0  0  0
    3.6554    1.3275    0.1490 O   0  5  0  0  0  0  0  0  0  0  0  0
    2.5359   -0.6628    0.9681 O   0  0  0  0  0  0  0  0  0  0  0  0
    2.9022    0.1613   -0.2193 S   0  0  0  0  0  0  0  0  0  0  0  0
    3.4187   -0.7026   -1.2503 O   0  0  0  0  0  0  0  0  0  0  0  0
  2  5  1  0  0  0  0
  5  3  1  0  0  0  0
  5  4  2  0  0  0  0
  5  6  2  0  0  0  0
M  CHG  3   1   2   2  -1   3  -1
M  END
