4835
 OpenBabel10141417513D

 37 41  0  0  1  0  0  0  0  0999 V2000
    3.6484   -2.1917   14.1064 F   0  0  0  0  0  0  0  0  0  0  0  0
    3.9591   -0.1617   13.3931 F   0  0  0  0  0  0  0  0  0  0  0  0
    4.2351   -2.0646    9.1077 O   0  0  0  0  0  0  0  0  0  0  0  0
    9.3086   -2.0479    6.4710 N   0  0  0  0  0  0  0  0  0  0  0  0
   13.0933   -1.1421    7.2880 N   0  0  0  0  0  0  0  0  0  0  0  0
   15.1590   -1.0810    8.0131 N   0  0  0  0  0  0  0  0  0  0  0  0
    5.4581   -3.9952    8.9101 N   0  0  0  0  0  0  0  0  0  0  0  0
   14.5576   -2.1859    8.5427 N   0  0  0  0  0  0  0  0  0  0  0  0
    9.3007   -0.7374    7.1383 C   0  0  1  0  0  0  0  0  0  0  0  0
    9.9716   -1.7479    5.1856 C   0  0  2  0  0  0  0  0  0  0  0  0
   11.8315   -0.7594    6.6600 C   0  0  3  0  0  0  0  0  0  0  0  0
   10.7111   -0.5337    7.7015 C   0  0  0  0  0  0  0  0  0  0  0  0
   11.4788   -1.6844    5.4736 C   0  0  0  0  0  0  0  0  0  0  0  0
    8.9740    0.2786    6.0476 C   0  0  0  0  0  0  0  0  0  0  0  0
    9.4378   -0.3792    4.7556 C   0  0  0  0  0  0  0  0  0  0  0  0
    7.9747   -2.6599    6.2994 C   0  0  0  0  0  0  0  0  0  0  0  0
    7.3066   -2.9815    7.6542 C   0  0  0  0  0  0  0  0  0  0  0  0
   14.2997   -0.4756    7.2182 C   0  0  0  0  0  0  0  0  0  0  0  0
    5.9772   -3.7615    7.5547 C   0  0  1  0  0  0  0  0  0  0  0  0
   13.3299   -2.2535    8.0750 C   0  0  0  0  0  0  0  0  0  0  0  0
   14.6305    0.7041    6.3532 C   0  0  0  0  0  0  0  0  0  0  0  0
   12.3805   -3.3554    8.3702 C   0  0  0  0  0  0  0  0  0  0  0  0
    6.1006   -5.1129    6.8669 C   0  0  0  0  0  0  0  0  0  0  0  0
    4.2434   -3.6201   10.9855 C   0  0  0  0  0  0  0  0  0  0  0  0
    4.6136   -3.1252    9.5712 C   0  0  0  0  0  0  0  0  0  0  0  0
   15.0290    1.9074    7.2074 C   0  0  0  0  0  0  0  0  0  0  0  0
   15.7592    0.3370    5.3860 C   0  0  0  0  0  0  0  0  0  0  0  0
    2.8707   -3.1145   11.4529 C   0  0  0  0  0  0  0  0  0  0  0  0
    5.3546   -3.2993   11.9965 C   0  0  0  0  0  0  0  0  0  0  0  0
    2.8742   -1.6718   11.9546 C   0  0  0  0  0  0  0  0  0  0  0  0
    5.3259   -1.8550   12.5006 C   0  0  0  0  0  0  0  0  0  0  0  0
    3.9486   -1.4587   13.0018 C   0  0  0  0  0  0  0  0  0  0  0  0
    5.0342   -5.5986    6.0937 C   0  0  0  0  0  0  0  0  0  0  0  0
    7.2350   -5.9269    7.0259 C   0  0  0  0  0  0  0  0  0  0  0  0
    5.1175   -6.8480    5.4745 C   0  0  0  0  0  0  0  0  0  0  0  0
    7.3208   -7.1687    6.3989 C   0  0  0  0  0  0  0  0  0  0  0  0
    6.2622   -7.6289    5.6231 C   0  0  0  0  0  0  0  0  0  0  0  0
  1 32  1  0  0  0  0
  2 32  1  0  0  0  0
  3 25  2  0  0  0  0
  4 16  1  0  0  0  0
  5 18  1  0  0  0  0
  5 20  1  0  0  0  0
  5 11  1  0  0  0  0
  6  8  1  0  0  0  0
  6 18  2  0  0  0  0
  7 25  1  0  0  0  0
  8 20  2  0  0  0  0
  9  4  1  6  0  0  0
  9 12  1  0  0  0  0
  9 14  1  0  0  0  0
 10  4  1  1  0  0  0
 10 13  1  0  0  0  0
 10 15  1  0  0  0  0
 11 12  1  0  0  0  0
 11 13  1  0  0  0  0
 14 15  1  0  0  0  0
 16 17  1  0  0  0  0
 17 19  1  0  0  0  0
 18 21  1  0  0  0  0
 19  7  1  1  0  0  0
 19 23  1  0  0  0  0
 20 22  1  0  0  0  0
 21 26  1  0  0  0  0
 21 27  1  0  0  0  0
 23 33  2  0  0  0  0
 23 34  1  0  0  0  0
 24 25  1  0  0  0  0
 24 28  1  0  0  0  0
 24 29  1  0  0  0  0
 28 30  1  0  0  0  0
 29 31  1  0  0  0  0
 30 32  1  0  0  0  0
 31 32  1  0  0  0  0
 33 35  1  0  0  0  0
 34 36  2  0  0  0  0
 35 37  2  0  0  0  0
 36 37  1  0  0  0  0
M  END
