786
 OpenBabel10141417523D

 23 22  0  0  1  0  0  0  0  0999 V2000
    1.7815    1.3308   -0.8151 O   0  0  0  0  0  0  0  0  0  0  0  0
    2.5494    2.2320    1.6177 O   0  0  0  0  0  0  0  0  0  0  0  0
    6.1146    2.1074    4.3007 O   0  0  0  0  0  0  0  0  0  0  0  0
    0.0844    0.5000    1.7888 O   0  0  0  0  0  0  0  0  0  0  0  0
   -1.9915   -0.5755    0.4312 O   0  0  0  0  0  0  0  0  0  0  0  0
    3.5266    0.8052    3.1475 N   0  0  0  0  0  0  0  0  0  0  0  0
    5.0001    3.7765    3.3296 N   0  0  0  0  0  0  0  0  0  0  0  0
   -0.6887   -0.4907   -0.1120 N   0  0  0  0  0  0  0  0  0  0  0  0
    3.6034    1.1585    5.6926 C   0  0  0  0  0  0  0  0  0  0  0  0
    3.6968    1.7953    4.2401 C   0  0  1  0  0  0  0  0  0  0  0  0
    2.9052   -0.0639    0.9165 C   0  0  1  0  0  0  0  0  0  0  0  0
    4.2855   -0.1320    0.1977 C   0  0  0  0  0  0  0  0  0  0  0  0
    4.6488   -1.3816   -0.6491 C   0  0  0  0  0  0  0  0  0  0  0  0
    2.9592    1.0986    1.9253 C   0  0  0  0  0  0  0  0  0  0  0  0
    3.8832    2.2393    6.7652 C   0  0  0  0  0  0  0  0  0  0  0  0
    2.1641    0.6401    5.9134 C   0  0  0  0  0  0  0  0  0  0  0  0
    4.5389   -0.0344    5.9894 C   0  0  0  0  0  0  0  0  0  0  0  0
    1.6967    0.1266   -0.0490 C   0  0  1  0  0  0  0  0  0  0  0  0
    5.0154    2.5771    3.9916 C   0  0  0  0  0  0  0  0  0  0  0  0
    6.0511   -1.1674   -1.2496 C   0  0  0  0  0  0  0  0  0  0  0  0
    4.6784   -2.7029    0.1252 C   0  0  0  0  0  0  0  0  0  0  0  0
    0.3099    0.0667    0.6508 C   0  0  0  0  0  0  0  0  0  0  0  0
    3.8911    4.5236    2.7694 C   0  0  0  0  0  0  0  0  0  0  0  0
  2 14  2  0  0  0  0
  3 19  2  0  0  0  0
  4 22  2  0  0  0  0
  5  8  1  0  0  0  0
  6 14  1  0  0  0  0
  7 19  1  0  0  0  0
  7 23  1  0  0  0  0
  8 22  1  0  0  0  0
  9 10  1  0  0  0  0
  9 15  1  0  0  0  0
  9 16  1  0  0  0  0
  9 17  1  0  0  0  0
 10  6  1  6  0  0  0
 10 19  1  0  0  0  0
 11 12  1  6  0  0  0
 11 14  1  0  0  0  0
 11 18  1  0  0  0  0
 12 13  1  0  0  0  0
 13 20  1  0  0  0  0
 13 21  1  0  0  0  0
 18  1  1  1  0  0  0
 18 22  1  0  0  0  0
M  END
