579
 OpenBabel10141417523D

 20 23  0  0  1  0  0  0  0  0999 V2000
    0.9456   -0.2276   -2.2705 Cl  0  0  0  0  0  0  0  0  0  0  0  0
    7.2772    0.9767   -0.3373 O   0  0  0  0  0  0  0  0  0  0  0  0
    6.5578   -0.3762    1.4246 N   0  0  0  0  0  0  0  0  0  0  0  0
    7.8885   -1.2783    3.0650 N   0  0  0  0  0  0  0  0  0  0  0  0
    6.5685   -0.2062   -0.0125 C   0  0  3  0  0  0  0  0  0  0  0  0
    7.4102   -1.4099   -0.4328 C   0  0  0  0  0  0  0  0  0  0  0  0
    7.4894   -1.2880    1.8290 C   0  0  0  0  0  0  0  0  0  0  0  0
    6.4763    0.6418    2.4275 C   0  0  0  0  0  0  0  0  0  0  0  0
    7.9619   -2.0485    0.6933 C   0  0  0  0  0  0  0  0  0  0  0  0
    5.1543   -0.2014   -0.5743 C   0  0  0  0  0  0  0  0  0  0  0  0
    7.0664   -0.1423    3.6313 C   0  0  0  0  0  0  0  0  0  0  0  0
    7.7121   -1.8815   -1.7005 C   0  0  0  0  0  0  0  0  0  0  0  0
    8.8096   -3.1311    0.6168 C   0  0  0  0  0  0  0  0  0  0  0  0
    4.2436   -1.2262   -0.2456 C   0  0  0  0  0  0  0  0  0  0  0  0
    4.7169    0.8126   -1.4464 C   0  0  0  0  0  0  0  0  0  0  0  0
    8.5578   -2.9934   -1.8067 C   0  0  0  0  0  0  0  0  0  0  0  0
    9.1014   -3.6105   -0.6609 C   0  0  0  0  0  0  0  0  0  0  0  0
    2.9469   -1.2354   -0.7678 C   0  0  0  0  0  0  0  0  0  0  0  0
    3.4195    0.8054   -1.9684 C   0  0  0  0  0  0  0  0  0  0  0  0
    2.5409   -0.2188   -1.6270 C   0  0  0  0  0  0  0  0  0  0  0  0
  1 20  1  0  0  0  0
  2  5  1  0  0  0  0
  3  5  1  0  0  0  0
  3  7  1  0  0  0  0
  3  8  1  0  0  0  0
  4  7  2  0  0  0  0
  4 11  1  0  0  0  0
  5  6  1  0  0  0  0
  5 10  1  0  0  0  0
  6  9  1  0  0  0  0
  6 12  2  0  0  0  0
  7  9  1  0  0  0  0
  8 11  1  0  0  0  0
  9 13  2  0  0  0  0
 10 14  2  0  0  0  0
 10 15  1  0  0  0  0
 12 16  1  0  0  0  0
 13 17  1  0  0  0  0
 14 18  1  0  0  0  0
 15 19  2  0  0  0  0
 16 17  2  0  0  0  0
 18 20  2  0  0  0  0
 19 20  1  0  0  0  0
M  END
