657
 OpenBabel10141417493D

 12 13  0  0  1  0  0  0  0  0999 V2000
    1.0038    0.2634    0.1733 N   0  0  0  0  0  0  0  0  0  0  0  0
    1.4885    2.4841   -0.9700 C   0  0  0  0  0  0  0  0  0  0  0  0
    0.5488    1.1775   -0.9067 C   0  0  3  0  0  0  0  0  0  0  0  0
    0.4821    3.6287   -0.5914 C   0  0  3  0  0  0  0  0  0  0  0  0
   -0.8316    1.8289   -0.5169 C   0  0  3  0  0  0  0  0  0  0  0  0
   -0.4262    2.9540    0.4427 C   0  0  0  0  0  0  0  0  0  0  0  0
   -0.5388    3.8999   -1.7117 C   0  0  0  0  0  0  0  0  0  0  0  0
   -1.4350    2.6586   -1.6689 C   0  0  0  0  0  0  0  0  0  0  0  0
    2.6422    2.4913    0.0713 C   0  0  0  0  0  0  0  0  0  0  0  0
    2.1802    2.7283   -2.3266 C   0  0  0  0  0  0  0  0  0  0  0  0
    0.4808    0.3918   -2.2315 C   0  0  0  0  0  0  0  0  0  0  0  0
    0.3072   -1.0103    0.2899 C   0  0  0  0  0  0  0  0  0  0  0  0
  1  3  1  0  0  0  0
  1 12  1  0  0  0  0
  2  3  1  0  0  0  0
  2  4  1  0  0  0  0
  2  9  1  0  0  0  0
  2 10  1  0  0  0  0
  3  5  1  0  0  0  0
  3 11  1  0  0  0  0
  4  6  1  0  0  0  0
  4  7  1  0  0  0  0
  5  6  1  0  0  0  0
  5  8  1  0  0  0  0
  7  8  1  0  0  0  0
M  END
