888
 OpenBabel10141417503D

  8  7  0  0  0  0  0  0  0  0999 V2000
    2.6799    1.9077   -5.4285 Cl  0  0  0  0  0  0  0  0  0  0  0  0
    7.9270   -2.3033   -3.1937 Cl  0  0  0  0  0  0  0  0  0  0  0  0
    5.0000    0.4505   -2.3702 N   0  0  0  0  0  0  0  0  0  0  0  0
    4.3001    1.3741   -3.3012 C   0  0  0  0  0  0  0  0  0  0  0  0
    6.0406   -0.3363   -3.0755 C   0  0  0  0  0  0  0  0  0  0  0  0
    5.5718    1.2402   -1.2710 C   0  0  0  0  0  0  0  0  0  0  0  0
    3.4840    0.6864   -4.4041 C   0  0  0  0  0  0  0  0  0  0  0  0
    6.8291   -1.3142   -2.1921 C   0  0  0  0  0  0  0  0  0  0  0  0
  1  7  1  0  0  0  0
  2  8  1  0  0  0  0
  3  4  1  0  0  0  0
  3  5  1  0  0  0  0
  3  6  1  0  0  0  0
  4  7  1  0  0  0  0
  5  8  1  0  0  0  0
M  END
