939
 OpenBabel10141417503D

 19 20  0  0  0  0  0  0  0  0999 V2000
    1.0481    0.2966    1.5046 Cl  0  0  0  0  0  0  0  0  0  0  0  0
    5.5051   -2.0208   -0.6732 Cl  0  0  0  0  0  0  0  0  0  0  0  0
    1.6675   -3.8800    1.5095 O   0  0  0  0  0  0  0  0  0  0  0  0
    0.4255   -5.3839    0.3684 O   0  0  0  0  0  0  0  0  0  0  0  0
    2.5654   -1.9193   -0.0816 N   0  0  0  0  0  0  0  0  0  0  0  0
    3.2864   -0.7365    0.2872 C   0  0  0  0  0  0  0  0  0  0  0  0
    1.2560   -1.9993   -0.6388 C   0  0  0  0  0  0  0  0  0  0  0  0
    3.4377    1.5405    1.2002 C   0  0  0  0  0  0  0  0  0  0  0  0
    2.6891    0.3771    0.9274 C   0  0  0  0  0  0  0  0  0  0  0  0
    0.4436   -3.1272   -0.3957 C   0  0  0  0  0  0  0  0  0  0  0  0
    4.6872   -0.7042    0.1004 C   0  0  0  0  0  0  0  0  0  0  0  0
    4.8301    1.5110    1.0356 C   0  0  0  0  0  0  0  0  0  0  0  0
    0.7695   -1.0025   -1.5022 C   0  0  0  0  0  0  0  0  0  0  0  0
    5.4556    0.3874    0.5061 C   0  0  0  0  0  0  0  0  0  0  0  0
   -0.8332   -3.2180   -0.9713 C   0  0  0  0  0  0  0  0  0  0  0  0
    2.8144    2.8424    1.6279 C   0  0  0  0  0  0  0  0  0  0  0  0
   -0.5190   -1.0821   -2.0387 C   0  0  0  0  0  0  0  0  0  0  0  0
   -1.3196   -2.1892   -1.7746 C   0  0  0  0  0  0  0  0  0  0  0  0
    0.8510   -4.2413    0.5003 C   0  0  0  0  0  0  0  0  0  0  0  0
  1  9  1  0  0  0  0
  2 11  1  0  0  0  0
  3 19  1  0  0  0  0
  4 19  2  0  0  0  0
  5  6  1  0  0  0  0
  5  7  1  0  0  0  0
  6  9  1  0  0  0  0
  6 11  2  0  0  0  0
  7 10  1  0  0  0  0
  7 13  2  0  0  0  0
  8  9  2  0  0  0  0
  8 12  1  0  0  0  0
  8 16  1  0  0  0  0
 10 15  2  0  0  0  0
 10 19  1  0  0  0  0
 11 14  1  0  0  0  0
 12 14  2  0  0  0  0
 13 17  1  0  0  0  0
 15 18  1  0  0  0  0
 17 18  2  0  0  0  0
M  END
