737
 OpenBabel10141417513D

 28 31  0  0  1  0  0  0  0  0999 V2000
    2.0625    1.5900   -4.3203 Cl  0  0  0  0  0  0  0  0  0  0  0  0
    8.3230    0.2164   -1.9772 N   0  0  0  0  0  0  0  0  0  0  0  0
   10.7583    1.7889   -1.1586 N   0  0  0  0  0  0  0  0  0  0  0  0
    8.2161    1.5414   -1.3451 C   0  0  0  0  0  0  0  0  0  0  0  0
    9.6055   -0.4349   -1.6526 C   0  0  0  0  0  0  0  0  0  0  0  0
    9.4809    2.4220   -1.5436 C   0  0  0  0  0  0  0  0  0  0  0  0
   10.8371    0.4812   -1.8403 C   0  0  0  0  0  0  0  0  0  0  0  0
    7.1406   -0.6816   -1.7988 C   0  0  3  0  0  0  0  0  0  0  0  0
   10.8811    1.7046    0.3092 C   0  0  0  0  0  0  0  0  0  0  0  0
    5.8313   -0.1100   -2.4179 C   0  0  0  0  0  0  0  0  0  0  0  0
    7.0024   -1.2708   -0.3820 C   0  0  0  0  0  0  0  0  0  0  0  0
   12.1726    1.0680    0.7851 C   0  0  0  0  0  0  0  0  0  0  0  0
    5.8912    0.7363   -3.5461 C   0  0  0  0  0  0  0  0  0  0  0  0
    4.5499   -0.4661   -1.9567 C   0  0  0  0  0  0  0  0  0  0  0  0
    6.3297   -0.5812    0.6421 C   0  0  0  0  0  0  0  0  0  0  0  0
    7.5504   -2.5305   -0.0741 C   0  0  0  0  0  0  0  0  0  0  0  0
   12.1439   -0.0927    1.5750 C   0  0  0  0  0  0  0  0  0  0  0  0
   13.4139    1.6073    0.4191 C   0  0  0  0  0  0  0  0  0  0  0  0
    4.7328    1.2711   -4.1213 C   0  0  0  0  0  0  0  0  0  0  0  0
    3.3872    0.0677   -2.5282 C   0  0  0  0  0  0  0  0  0  0  0  0
    6.1505   -1.1548    1.9023 C   0  0  0  0  0  0  0  0  0  0  0  0
    7.4046   -3.0885    1.2040 C   0  0  0  0  0  0  0  0  0  0  0  0
   13.3303   -0.7413    1.9456 C   0  0  0  0  0  0  0  0  0  0  0  0
    3.4877    0.9410   -3.6086 C   0  0  0  0  0  0  0  0  0  0  0  0
    6.6883   -2.4029    2.1858 C   0  0  0  0  0  0  0  0  0  0  0  0
   14.5989    0.9932    0.8244 C   0  0  0  0  0  0  0  0  0  0  0  0
   14.5578   -0.1751    1.5842 C   0  0  0  0  0  0  0  0  0  0  0  0
   13.2830   -2.0190    2.7300 C   0  0  0  0  0  0  0  0  0  0  0  0
  1 24  1  0  0  0  0
  2  4  1  0  0  0  0
  2  5  1  0  0  0  0
  2  8  1  0  0  0  0
  3  6  1  0  0  0  0
  3  7  1  0  0  0  0
  3  9  1  0  0  0  0
  4  6  1  0  0  0  0
  5  7  1  0  0  0  0
  8 10  1  0  0  0  0
  8 11  1  0  0  0  0
  9 12  1  0  0  0  0
 10 13  2  0  0  0  0
 10 14  1  0  0  0  0
 11 15  2  0  0  0  0
 11 16  1  0  0  0  0
 12 17  1  0  0  0  0
 12 18  2  0  0  0  0
 13 19  1  0  0  0  0
 14 20  2  0  0  0  0
 15 21  1  0  0  0  0
 16 22  2  0  0  0  0
 17 23  2  0  0  0  0
 18 26  1  0  0  0  0
 19 24  2  0  0  0  0
 20 24  1  0  0  0  0
 21 25  2  0  0  0  0
 22 25  1  0  0  0  0
 23 27  1  0  0  0  0
 23 28  1  0  0  0  0
 26 27  2  0  0  0  0
M  END
