1065
 OpenBabel10141417493D

 17 18  0  0  0  0  0  0  0  0999 V2000
    0.1040   -0.0472    1.7767 O   0  0  0  0  0  0  0  0  0  0  0  0
    4.5274   -3.8827    1.2689 O   0  0  0  0  0  0  0  0  0  0  0  0
   -2.0302   -5.0450    0.9192 N   0  0  0  0  0  0  0  0  0  0  0  0
    2.7536   -4.9690    2.2358 N   0  0  0  0  0  0  0  0  0  0  0  0
    0.1674   -4.9284    0.5385 C   0  0  0  0  0  0  0  0  0  0  0  0
   -0.3026   -3.6536    0.9846 C   0  0  0  0  0  0  0  0  0  0  0  0
    1.5536   -5.2508    0.0566 C   0  0  0  0  0  0  0  0  0  0  0  0
   -1.6838   -3.7330    1.1392 C   0  0  0  0  0  0  0  0  0  0  0  0
   -0.9285   -5.7689    0.5409 C   0  0  0  0  0  0  0  0  0  0  0  0
    2.4799   -5.8496    1.1153 C   0  0  0  0  0  0  0  0  0  0  0  0
    0.3289   -2.4178    1.2105 C   0  0  0  0  0  0  0  0  0  0  0  0
   -2.4752   -2.6162    1.4347 C   0  0  0  0  0  0  0  0  0  0  0  0
   -0.4290   -1.2874    1.5304 C   0  0  0  0  0  0  0  0  0  0  0  0
   -1.8204   -1.3873    1.6071 C   0  0  0  0  0  0  0  0  0  0  0  0
    3.7642   -4.0341    2.2063 C   0  0  0  0  0  0  0  0  0  0  0  0
    3.8691   -3.2249    3.4742 C   0  0  0  0  0  0  0  0  0  0  0  0
    1.5261    0.0420    1.6895 C   0  0  0  0  0  0  0  0  0  0  0  0
  1 13  1  0  0  0  0
  1 17  1  0  0  0  0
  2 15  2  0  0  0  0
  3  8  1  0  0  0  0
  3  9  1  0  0  0  0
  4 10  1  0  0  0  0
  4 15  1  0  0  0  0
  5  6  1  0  0  0  0
  5  7  1  0  0  0  0
  5  9  2  0  0  0  0
  6  8  2  0  0  0  0
  6 11  1  0  0  0  0
  7 10  1  0  0  0  0
  8 12  1  0  0  0  0
 11 13  2  0  0  0  0
 12 14  2  0  0  0  0
 13 14  1  0  0  0  0
 15 16  1  0  0  0  0
M  END
