
 OpenBabel10141417483D

 23 25  0  0  0  0  0  0  0  0999 V2000
   -0.2788   -0.1352    0.5775 C   0  0  0  0  0  0  0  0  0  0  0  0
   -0.2885    1.2259    0.2850 C   0  0  0  0  0  0  0  0  0  0  0  0
    0.9707   -0.8052    0.9982 C   0  0  0  0  0  0  0  0  0  0  0  0
   -1.4958   -0.8302    0.4803 C   0  0  0  0  0  0  0  0  0  0  0  0
    1.2544    2.0637    0.3178 S   0  0  0  0  0  0  0  0  0  0  0  0
   -1.4534    1.9010   -0.0919 C   0  0  0  0  0  0  0  0  0  0  0  0
    2.2160   -0.3861    0.6623 C   0  0  0  0  0  0  0  0  0  0  0  0
    0.7750   -1.9190    1.8063 O   0  0  0  0  0  0  0  0  0  0  0  0
   -2.6746   -0.1661    0.1241 C   0  0  0  0  0  0  0  0  0  0  0  0
    2.3159    0.8157   -0.1588 N   0  0  0  0  0  0  0  0  0  0  0  0
    1.2209    3.0585   -0.7304 O   0  0  0  0  0  0  0  0  0  0  0  0
    1.5240    2.4176    1.6969 O   0  0  0  0  0  0  0  0  0  0  0  0
   -2.6539    1.1987   -0.1584 C   0  0  0  0  0  0  0  0  0  0  0  0
    3.4737   -1.1456    1.0886 C   0  0  0  0  0  0  0  0  0  0  0  0
    3.6455    1.3194   -0.5747 C   0  0  0  0  0  0  0  0  0  0  0  0
    3.2579   -2.4821    1.3164 N   0  0  0  0  0  0  0  0  0  0  0  0
    4.5627   -0.5832    1.1357 O   0  0  0  0  0  0  0  0  0  0  0  0
    4.2294   -3.3647    1.6809 C   0  0  0  0  0  0  0  0  0  0  0  0
    5.4687   -3.1631    2.0426 N   0  0  0  0  0  0  0  0  0  0  0  0
    3.7115   -4.9918    1.6163 S   0  0  0  0  0  0  0  0  0  0  0  0
    6.0877   -4.3843    2.2365 C   0  0  0  0  0  0  0  0  0  0  0  0
    5.3076   -5.4967    1.9853 C   0  0  0  0  0  0  0  0  0  0  0  0
    5.6843   -6.9325    1.9777 C   0  0  0  0  0  0  0  0  0  0  0  0
  1  2  2  0  0  0  0
  1  3  1  0  0  0  0
  1  4  1  0  0  0  0
  2  5  1  0  0  0  0
  2  6  1  0  0  0  0
  3  7  2  0  0  0  0
  3  8  1  0  0  0  0
  4  9  2  0  0  0  0
  5 10  1  0  0  0  0
  5 11  2  0  0  0  0
  5 12  2  0  0  0  0
  6 13  2  0  0  0  0
  7 14  1  0  0  0  0
  7 10  1  0  0  0  0
  9 13  1  0  0  0  0
 10 15  1  0  0  0  0
 14 16  1  0  0  0  0
 14 17  2  0  0  0  0
 16 18  1  0  0  0  0
 18 19  2  0  0  0  0
 18 20  1  0  0  0  0
 19 21  1  0  0  0  0
 20 22  1  0  0  0  0
 21 22  2  0  0  0  0
 22 23  1  0  0  0  0
M  END
