
 OpenBabel10141417513D

 19 19  0  0  1  0  0  0  0  0999 V2000
   -0.4872    0.7032    0.0261 C   0  0  0  0  0  0  0  0  0  0  0  0
   -1.8753    0.5816   -0.0736 N   0  0  0  0  0  0  0  0  0  0  0  0
    0.1530    1.6644    0.8148 C   0  0  0  0  0  0  0  0  0  0  0  0
    0.3806   -0.1705   -0.6472 C   0  0  0  0  0  0  0  0  0  0  0  0
   -2.7845    1.6980    0.2949 C   0  0  0  0  0  0  0  0  0  0  0  0
   -2.4512   -0.7626   -0.3347 C   0  0  0  0  0  0  0  0  0  0  0  0
    1.5415    1.6298    1.0460 C   0  0  0  0  0  0  0  0  0  0  0  0
    1.7637   -0.1872   -0.4769 C   0  0  0  0  0  0  0  0  0  0  0  0
    2.3529    0.6763    0.4298 C   0  0  0  0  0  0  0  0  0  0  0  0
    3.8176    0.5404    0.7580 C   0  0  0  0  0  0  0  0  0  0  0  0
    4.0874   -0.4055    1.9448 C   0  0  1  0  0  0  0  0  0  0  0  0
    3.6258   -1.8284    1.6484 C   0  0  0  0  0  0  0  0  0  0  0  0
    5.5396   -0.4211    2.2622 N   0  0  0  0  0  0  0  0  0  0  0  0
    2.7735   -2.3189    2.5672 O   0  0  0  0  0  0  0  0  0  0  0  0
    4.0235   -2.5510    0.7201 O   0  0  0  0  0  0  0  0  0  0  0  0
   -2.8898   -1.0375   -1.7863 C   0  0  0  0  0  0  0  0  0  0  0  0
   -1.6470   -1.1519   -3.0537 Cl  0  0  0  0  0  0  0  0  0  0  0  0
   -3.6240    1.4405    1.5561 C   0  0  0  0  0  0  0  0  0  0  0  0
   -4.6436    2.8467    1.9794 Cl  0  0  0  0  0  0  0  0  0  0  0  0
  1  2  1  0  0  0  0
  1  3  2  0  0  0  0
  1  4  1  0  0  0  0
  2  5  1  0  0  0  0
  2  6  1  0  0  0  0
  3  7  1  0  0  0  0
  4  8  2  0  0  0  0
  5 18  1  0  0  0  0
  6 16  1  0  0  0  0
  7  9  2  0  0  0  0
  8  9  1  0  0  0  0
  9 10  1  0  0  0  0
 11 10  1  6  0  0  0
 11 12  1  0  0  0  0
 11 13  1  0  0  0  0
 12 14  1  0  0  0  0
 12 15  2  0  0  0  0
 16 17  1  0  0  0  0
 18 19  1  0  0  0  0
M  END
