
 OpenBabel10141417533D

 25 27  0  0  1  0  0  0  0  0999 V2000
    2.9653   -1.6282    0.0983 O   0  0  0  0  0  0  0  0  0  0  0  0
    2.9551    0.4796   -2.7943 O   0  0  0  0  0  0  0  0  0  0  0  0
    1.9845    0.3903   -0.2287 O   0  0  0  0  0  0  0  0  0  0  0  0
    0.4813   -3.4957    0.6080 N   0  3  0  0  0  0  0  0  0  0  0  0
    0.7529   -2.0811    1.1800 C   0  0  0  0  0  0  0  0  0  0  0  0
    1.2699   -4.5706    1.3602 C   0  0  0  0  0  0  0  0  0  0  0  0
    2.2546   -1.7570    1.3495 C   0  0  3  0  0  0  0  0  0  0  0  0
    2.7471   -4.2222    1.4954 C   0  0  0  0  0  0  0  0  0  0  0  0
    2.9540   -2.8577    2.1424 C   0  0  0  0  0  0  0  0  0  0  0  0
    0.7837   -3.5448   -0.8868 C   0  0  0  0  0  0  0  0  0  0  0  0
   -1.0149   -3.8000    0.7694 C   0  0  0  0  0  0  0  0  0  0  0  0
    2.7755   -0.4678   -0.5995 C   0  0  0  0  0  0  0  0  0  0  0  0
    3.6732   -0.3794   -1.8882 C   0  0  0  0  0  0  0  0  0  0  0  0
    5.0343    0.3007   -1.6400 C   0  0  0  0  0  0  0  0  0  0  0  0
    3.7799   -1.7677   -2.5571 C   0  0  0  0  0  0  0  0  0  0  0  0
    5.5019    0.6458   -0.3604 C   0  0  0  0  0  0  0  0  0  0  0  0
    4.8920   -2.6083   -2.3528 C   0  0  0  0  0  0  0  0  0  0  0  0
    5.8788    0.5767   -2.7397 C   0  0  0  0  0  0  0  0  0  0  0  0
    2.7336   -2.2535   -3.3669 C   0  0  0  0  0  0  0  0  0  0  0  0
    6.7746    1.2028   -0.1858 C   0  0  0  0  0  0  0  0  0  0  0  0
    4.9669   -3.8665   -2.9564 C   0  0  0  0  0  0  0  0  0  0  0  0
    7.1521    1.1247   -2.5606 C   0  0  0  0  0  0  0  0  0  0  0  0
    2.8016   -3.5216   -3.9529 C   0  0  0  0  0  0  0  0  0  0  0  0
    7.6036    1.4282   -1.2812 C   0  0  0  0  0  0  0  0  0  0  0  0
    3.9212   -4.3241   -3.7524 C   0  0  0  0  0  0  0  0  0  0  0  0
  1  7  1  0  0  0  0
  1 12  1  0  0  0  0
  2 13  1  0  0  0  0
  3 12  2  0  0  0  0
  4  5  1  0  0  0  0
  4  6  1  0  0  0  0
  4 10  1  0  0  0  0
  4 11  1  0  0  0  0
  5  7  1  0  0  0  0
  6  8  1  0  0  0  0
  7  9  1  0  0  0  0
  8  9  1  0  0  0  0
 12 13  1  0  0  0  0
 13 14  1  0  0  0  0
 13 15  1  0  0  0  0
 14 16  2  0  0  0  0
 14 18  1  0  0  0  0
 15 17  2  0  0  0  0
 15 19  1  0  0  0  0
 16 20  1  0  0  0  0
 17 21  1  0  0  0  0
 18 22  2  0  0  0  0
 19 23  2  0  0  0  0
 20 24  2  0  0  0  0
 21 25  2  0  0  0  0
 22 24  1  0  0  0  0
 23 25  1  0  0  0  0
M  CHG  1   4   1
M  END
