1365
 OpenBabel10141417513D

 12 12  0  0  0  0  0  0  0  0999 V2000
    1.0683   -0.0477   -0.2897 N   0  0  0  0  0  0  0  0  0  0  0  0
    0.4995    1.2832   -0.6401 C   0  0  0  0  0  0  0  0  0  0  0  0
    0.6760    2.2928    0.5401 C   0  0  0  0  0  0  0  0  0  0  0  0
    1.1221    1.8167   -1.9426 C   0  0  0  0  0  0  0  0  0  0  0  0
   -0.9949    0.9893   -0.8980 C   0  0  0  0  0  0  0  0  0  0  0  0
    0.1603    3.7111    0.3711 C   0  0  0  0  0  0  0  0  0  0  0  0
    2.5041   -0.1024   -0.0593 C   0  0  0  0  0  0  0  0  0  0  0  0
    1.0211    4.7425   -0.0465 C   0  0  0  0  0  0  0  0  0  0  0  0
   -1.1582    4.0391    0.7049 C   0  0  0  0  0  0  0  0  0  0  0  0
    0.5668    6.0635   -0.1205 C   0  0  0  0  0  0  0  0  0  0  0  0
   -1.6123    5.3593    0.6271 C   0  0  0  0  0  0  0  0  0  0  0  0
   -0.7456    6.3729    0.2160 C   0  0  0  0  0  0  0  0  0  0  0  0
  1  2  1  0  0  0  0
  1  7  1  0  0  0  0
  2  3  1  0  0  0  0
  2  4  1  0  0  0  0
  2  5  1  0  0  0  0
  3  6  1  0  0  0  0
  6  8  2  0  0  0  0
  6  9  1  0  0  0  0
  8 10  1  0  0  0  0
  9 11  2  0  0  0  0
 10 12  2  0  0  0  0
 11 12  1  0  0  0  0
M  END
