371
 OpenBabel10141419023D

 15 14  0  0  0  0  0  0  0  0999 V2000
    0.6133    1.2770    1.9915 O   0  0  0  0  0  0  0  0  0  0  0  0
   -0.9029   -1.4588   -0.9580 O   0  0  0  0  0  0  0  0  0  0  0  0
    0.9481    0.3007    4.0512 O   0  0  0  0  0  0  0  0  0  0  0  0
    0.3358   -3.2080   -0.1303 O   0  0  0  0  0  0  0  0  0  0  0  0
    1.7662    2.3502    3.5152 N   0  0  0  0  0  0  0  0  0  0  0  0
    0.0510   -2.8697   -2.3540 N   0  0  0  0  0  0  0  0  0  0  0  0
   -1.2819    0.0401    0.9823 C   0  0  0  0  0  0  0  0  0  0  0  0
   -1.5639    1.2565    0.0480 C   0  0  0  0  0  0  0  0  0  0  0  0
    0.2166    0.0368    1.3784 C   0  0  0  0  0  0  0  0  0  0  0  0
   -1.6109   -1.3001    0.2815 C   0  0  0  0  0  0  0  0  0  0  0  0
   -2.1200    0.1423    2.2719 C   0  0  0  0  0  0  0  0  0  0  0  0
   -3.0352    1.4814   -0.3290 C   0  0  0  0  0  0  0  0  0  0  0  0
   -3.1984    2.6840   -1.2482 C   0  0  0  0  0  0  0  0  0  0  0  0
    1.0569    1.2207    3.2683 C   0  0  0  0  0  0  0  0  0  0  0  0
   -0.1153   -2.5592   -1.0458 C   0  0  0  0  0  0  0  0  0  0  0  0
  1  9  1  0  0  0  0
  1 14  1  0  0  0  0
  2 10  1  0  0  0  0
  2 15  1  0  0  0  0
  3 14  2  0  0  0  0
  4 15  2  0  0  0  0
  5 14  1  0  0  0  0
  6 15  1  0  0  0  0
  7  8  1  0  0  0  0
  7  9  1  0  0  0  0
  7 10  1  0  0  0  0
  7 11  1  0  0  0  0
  8 12  1  0  0  0  0
 12 13  1  0  0  0  0
M  END
