
 OpenBabel10141417513D

 26 28  0  0  1  0  0  0  0  0999 V2000
   -1.0183    0.7162   -0.4390 C   0  0  1  0  0  0  0  0  0  0  0  0
    0.3818    0.9578    0.1306 C   0  0  1  0  0  0  0  0  0  0  0  0
    0.2785    2.0175    1.2277 C   0  0  0  0  0  0  0  0  0  0  0  0
    0.8400   -0.4557    0.4662 C   0  0  0  0  0  0  0  0  0  0  0  0
    2.3481   -0.7206    1.2806 S   0  0  0  0  0  0  0  0  0  0  0  0
    3.5627   -0.9655   -0.0764 C   0  0  2  0  0  0  0  0  0  0  0  0
    5.0125   -1.1074    0.4023 C   0  0  0  0  0  0  0  0  0  0  0  0
    5.8518   -0.8299   -0.7866 N   0  0  0  0  0  0  0  0  0  0  0  0
    5.0864    0.1320   -1.6222 C   0  0  1  0  0  0  0  0  0  0  0  0
    3.6642    0.1956   -1.0504 C   0  0  0  0  0  0  0  0  0  0  0  0
    5.7496    1.5328   -1.6306 C   0  0  0  0  0  0  0  0  0  0  0  0
    5.4608    2.3717   -0.7689 O   0  0  0  0  0  0  0  0  0  0  0  0
    6.6437    1.8529   -2.6501 N   0  0  0  0  0  0  0  0  0  0  0  0
    7.1430    3.2186   -2.6854 C   0  0  0  0  0  0  0  0  0  0  0  0
    7.1058    0.9728   -3.7110 C   0  0  0  0  0  0  0  0  0  0  0  0
   -0.0988   -1.3599    0.1007 C   0  0  0  0  0  0  0  0  0  0  0  0
   -1.1794   -0.7563   -0.5421 N   0  0  0  0  0  0  0  0  0  0  0  0
   -2.4256   -0.7452    0.0080 C   0  0  0  0  0  0  0  0  0  0  0  0
   -3.1669   -1.6850    0.2563 O   0  0  0  0  0  0  0  0  0  0  0  0
   -2.3113    0.7002    0.4428 C   0  0  2  0  0  0  0  0  0  0  0  0
   -3.3941    1.6681    0.0328 C   0  0  1  0  0  0  0  0  0  0  0  0
   -4.7466    1.2756    0.6046 C   0  0  0  0  0  0  0  0  0  0  0  0
   -3.0281    2.9547    0.5296 O   0  0  0  0  0  0  0  0  0  0  0  0
   -0.0824   -2.8502    0.2896 C   0  0  0  0  0  0  0  0  0  0  0  0
   -1.2855   -3.4554    0.1559 O   0  0  0  0  0  0  0  0  0  0  0  0
    0.9259   -3.5073    0.4950 O   0  0  0  0  0  0  0  0  0  0  0  0
  1  2  1  0  0  0  0
  1 17  1  1  0  0  0
  1 20  1  0  0  0  0
  2  4  1  0  0  0  0
  2  3  1  1  0  0  0
  4 16  2  0  0  0  0
  4  5  1  0  0  0  0
  6  5  1  1  0  0  0
  6  7  1  0  0  0  0
  6 10  1  0  0  0  0
  7  8  1  0  0  0  0
  8  9  1  0  0  0  0
  9 10  1  0  0  0  0
  9 11  1  1  0  0  0
 11 12  2  0  0  0  0
 11 13  1  0  0  0  0
 13 14  1  0  0  0  0
 13 15  1  0  0  0  0
 16 17  1  0  0  0  0
 16 24  1  0  0  0  0
 17 18  1  0  0  0  0
 18 19  2  0  0  0  0
 20 18  1  6  0  0  0
 20 21  1  0  0  0  0
 21 23  1  1  0  0  0
 21 22  1  0  0  0  0
 24 25  1  0  0  0  0
 24 26  2  0  0  0  0
M  END
