
 OpenBabel10141417493D

 23 26  0  0  0  0  0  0  0  0999 V2000
    2.8695   -1.0329    0.8902 O   0  0  0  0  0  0  0  0  0  0  0  0
   10.2816   -0.8598   -6.0691 O   0  0  0  0  0  0  0  0  0  0  0  0
    3.1479   -0.0124   -1.3663 C   0  0  1  0  0  0  0  0  0  0  0  0
    4.1628    1.1811   -1.3621 C   0  0  2  0  0  0  0  0  0  0  0  0
    5.4603    1.0636   -2.1974 C   0  0  2  0  0  0  0  0  0  0  0  0
    2.4546    0.0652    0.0674 C   0  0  2  0  0  0  0  0  0  0  0  0
    3.8474   -1.3786   -1.5762 C   0  0  0  0  0  0  0  0  0  0  0  0
    4.4368    1.4175    0.1248 C   0  0  0  0  0  0  0  0  0  0  0  0
    4.9064   -1.3732   -2.6675 C   0  0  0  0  0  0  0  0  0  0  0  0
    3.0391    1.3230    0.7241 C   0  0  0  0  0  0  0  0  0  0  0  0
    5.2791    1.6713   -3.6014 C   0  0  0  0  0  0  0  0  0  0  0  0
    2.1479    0.2124   -2.5261 C   0  0  0  0  0  0  0  0  0  0  0  0
    7.1647   -0.4935   -3.2998 C   0  0  0  0  0  0  0  0  0  0  0  0
    6.6192    1.7649   -4.3275 C   0  0  0  0  0  0  0  0  0  0  0  0
    7.4183    0.4907   -4.2670 C   0  0  0  0  0  0  0  0  0  0  0  0
    1.0106    0.0652    0.0674 C   0  0  0  0  0  0  0  0  0  0  0  0
    7.9862   -1.6329   -3.2611 C   0  0  0  0  0  0  0  0  0  0  0  0
    8.4866    0.3169   -5.1635 C   0  0  0  0  0  0  0  0  0  0  0  0
    9.0366   -1.8008   -4.1681 C   0  0  0  0  0  0  0  0  0  0  0  0
    9.2902   -0.8251   -5.1273 C   0  0  0  0  0  0  0  0  0  0  0  0
   -0.1795    0.0652    0.0674 C   0  0  0  0  0  0  0  0  0  0  0  0
    6.0156   -0.3723   -2.3115 C   0  0  2  0  0  0  0  0  0  0  0  0
   11.0817   -2.0344   -6.1135 C   0  0  0  0  0  0  0  0  0  0  0  0
  2 20  1  0  0  0  0
  2 23  1  0  0  0  0
  3  4  1  0  0  0  0
  3  6  1  0  0  0  0
  3  7  1  0  0  0  0
  3 12  1  1  0  0  0
  4  5  1  0  0  0  0
  4  8  1  1  0  0  0
  5 11  1  6  0  0  0
  5 22  1  0  0  0  0
  6 10  1  0  0  0  0
  6 16  1  6  0  0  0
  6  1  1  0  0  0  0
  7  9  1  0  0  0  0
  8 10  1  0  0  0  0
 11 14  1  0  0  0  0
 13 15  2  0  0  0  0
 13 17  1  0  0  0  0
 14 15  1  0  0  0  0
 15 18  1  0  0  0  0
 16 21  3  0  0  0  0
 17 19  2  0  0  0  0
 18 20  2  0  0  0  0
 19 20  1  0  0  0  0
 22  9  1  1  0  0  0
 22 13  1  0  0  0  0
M  END
