610
 OpenBabel10141417523D

 12 12  0  0  1  0  0  0  0  0999 V2000
    1.4050   -0.4741   -0.2183 O   0  0  0  0  0  0  0  0  0  0  0  0
    0.7052    0.9489   -4.9406 O   0  0  0  0  0  0  0  0  0  0  0  0
    3.4510   -1.9428    1.1512 N   0  0  0  0  0  0  0  0  0  0  0  0
    2.7714   -0.3252   -0.6273 C   0  0  1  0  0  0  0  0  0  0  0  0
    3.5650   -1.6278   -0.2917 C   0  0  2  0  0  0  0  0  0  0  0  0
    2.8607    0.1134   -2.0772 C   0  0  0  0  0  0  0  0  0  0  0  0
    3.0807   -2.8450   -1.0839 C   0  0  0  0  0  0  0  0  0  0  0  0
    1.7117    0.3003   -2.8607 C   0  0  0  0  0  0  0  0  0  0  0  0
    4.1138    0.3907   -2.6590 C   0  0  0  0  0  0  0  0  0  0  0  0
    1.8124    0.7508   -4.1710 C   0  0  0  0  0  0  0  0  0  0  0  0
    4.2055    0.8368   -3.9779 C   0  0  0  0  0  0  0  0  0  0  0  0
    3.0547    1.0227   -4.7382 C   0  0  0  0  0  0  0  0  0  0  0  0
  2 10  1  0  0  0  0
  4  1  1  6  0  0  0
  4  5  1  0  0  0  0
  4  6  1  0  0  0  0
  5  3  1  1  0  0  0
  5  7  1  0  0  0  0
  6  8  2  0  0  0  0
  6  9  1  0  0  0  0
  8 10  1  0  0  0  0
  9 11  2  0  0  0  0
 10 12  2  0  0  0  0
 11 12  1  0  0  0  0
M  END
