931
 OpenBabel10141417483D

 32 35  0  0  1  0  0  0  0  0999 V2000
   20.2840    8.6402   11.5061 O   0  0  0  0  0  0  0  0  0  0  0  0
   22.1811    7.1383   10.4558 O   0  0  0  0  0  0  0  0  0  0  0  0
   19.2558   10.9763    9.7289 O   0  0  0  0  0  0  0  0  0  0  0  0
   20.3180   10.8142   13.1111 O   0  0  0  0  0  0  0  0  0  0  0  0
   23.8897   12.5227   12.0377 O   0  0  0  0  0  0  0  0  0  0  0  0
   18.9232   10.3903    7.2475 O   0  0  0  0  0  0  0  0  0  0  0  0
   21.3036   14.5727   11.9632 O   0  0  0  0  0  0  0  0  0  0  0  0
   18.4872    9.7353    4.7682 O   0  0  0  0  0  0  0  0  0  0  0  0
   24.7636   10.4506   10.2736 N   0  0  0  0  0  0  0  0  0  0  0  0
   21.0765   13.2713   13.7768 N   0  0  0  0  0  0  0  0  0  0  0  0
   22.4892    9.4831   10.8052 C   0  0  1  0  0  0  0  0  0  0  0  0
   20.9755    9.7798   10.9879 C   0  0  1  0  0  0  0  0  0  0  0  0
   22.6594    8.3296    9.7862 C   0  0  2  0  0  0  0  0  0  0  0  0
   21.8726    8.5081    8.4401 C   0  0  1  0  0  0  0  0  0  0  0  0
   23.3149   10.7528   10.4321 C   0  0  1  0  0  0  0  0  0  0  0  0
   20.7227    9.4961    8.5225 C   0  0  0  0  0  0  0  0  0  0  0  0
   20.3092   10.0812    9.6664 C   0  0  0  0  0  0  0  0  0  0  0  0
   20.8514   10.9452   12.0060 C   0  0  0  0  0  0  0  0  0  0  0  0
   23.0171   11.9000   11.4366 C   0  0  0  0  0  0  0  0  0  0  0  0
   22.6961    8.7943    7.1849 C   0  0  0  0  0  0  0  0  0  0  0  0
   21.5498   12.2190   11.5975 C   0  0  3  0  0  0  0  0  0  0  0  0
   19.9878    9.7718    7.2506 C   0  0  0  0  0  0  0  0  0  0  0  0
   21.8799    8.7967    5.9422 C   0  0  0  0  0  0  0  0  0  0  0  0
   20.5548    9.2652    5.9805 C   0  0  0  0  0  0  0  0  0  0  0  0
   25.4368    9.9475   11.4742 C   0  0  0  0  0  0  0  0  0  0  0  0
   25.5198   11.5722    9.7051 C   0  0  0  0  0  0  0  0  0  0  0  0
   24.0108    9.0643    7.1170 C   0  0  0  0  0  0  0  0  0  0  0  0
   21.2867   13.4386   12.4430 C   0  0  0  0  0  0  0  0  0  0  0  0
   22.3817    8.3027    4.7252 C   0  0  0  0  0  0  0  0  0  0  0  0
   19.7755    9.2732    4.8126 C   0  0  0  0  0  0  0  0  0  0  0  0
   21.5941    8.3024    3.5707 C   0  0  0  0  0  0  0  0  0  0  0  0
   20.2920    8.7916    3.6142 C   0  0  0  0  0  0  0  0  0  0  0  0
  3 17  1  0  0  0  0
  4 18  2  0  0  0  0
  5 19  2  0  0  0  0
  6 22  2  0  0  0  0
  7 28  2  0  0  0  0
  8 30  1  0  0  0  0
  9 25  1  0  0  0  0
  9 26  1  0  0  0  0
 10 28  1  0  0  0  0
 11 12  1  6  0  0  0
 11 13  1  0  0  0  0
 11 15  1  0  0  0  0
 12 17  1  0  0  0  0
 12 18  1  0  0  0  0
 12  1  1  1  0  0  0
 13 14  1  0  0  0  0
 13  2  1  1  0  0  0
 14 16  1  1  0  0  0
 14 20  1  0  0  0  0
 15 19  1  0  0  0  0
 15  9  1  1  0  0  0
 16 17  2  0  0  0  0
 16 22  1  0  0  0  0
 18 21  1  0  0  0  0
 19 21  1  0  0  0  0
 20 23  1  0  0  0  0
 20 27  2  0  0  0  0
 21 28  1  0  0  0  0
 22 24  1  0  0  0  0
 23 24  2  0  0  0  0
 23 29  1  0  0  0  0
 24 30  1  0  0  0  0
 29 31  2  0  0  0  0
 30 32  2  0  0  0  0
 31 32  1  0  0  0  0
M  END
