723
 OpenBabel10141417493D

 15 15  0  0  1  0  0  0  0  0999 V2000
    3.7157    0.3234    1.0933 O   0  0  0  0  0  0  0  0  0  0  0  0
    3.4079   -0.6704   -2.9258 O   0  0  0  0  0  0  0  0  0  0  0  0
    3.0937    4.6558   -1.3867 O   0  0  0  0  0  0  0  0  0  0  0  0
    1.0485   -1.3179   -1.0395 N   0  0  0  0  0  0  0  0  0  0  0  0
    3.1575   -0.1869   -0.1300 C   0  0  3  0  0  0  0  0  0  0  0  0
    1.7056   -0.7169    0.1345 C   0  0  3  0  0  0  0  0  0  0  0  0
    3.2121    0.9243   -1.1788 C   0  0  0  0  0  0  0  0  0  0  0  0
    1.6742   -1.7759    1.2449 C   0  0  0  0  0  0  0  0  0  0  0  0
    3.3350    0.6500   -2.5548 C   0  0  0  0  0  0  0  0  0  0  0  0
    3.1183    2.2722   -0.7637 C   0  0  0  0  0  0  0  0  0  0  0  0
    3.1600    3.3231   -1.6852 C   0  0  0  0  0  0  0  0  0  0  0  0
    3.3590    1.7112   -3.4739 C   0  0  0  0  0  0  0  0  0  0  0  0
    3.2753    3.0327   -3.0353 C   0  0  0  0  0  0  0  0  0  0  0  0
    3.5590   -0.9346   -4.3191 C   0  0  0  0  0  0  0  0  0  0  0  0
    2.9814    4.9944   -0.0110 C   0  0  0  0  0  0  0  0  0  0  0  0
  1  5  1  0  0  0  0
  2  9  1  0  0  0  0
  2 14  1  0  0  0  0
  3 11  1  0  0  0  0
  3 15  1  0  0  0  0
  4  6  1  0  0  0  0
  5  6  1  0  0  0  0
  5  7  1  0  0  0  0
  6  8  1  0  0  0  0
  7  9  2  0  0  0  0
  7 10  1  0  0  0  0
  9 12  1  0  0  0  0
 10 11  2  0  0  0  0
 11 13  1  0  0  0  0
 12 13  2  0  0  0  0
M  END
