
 OpenBabel10141418013D

 15 16  0  0  1  0  0  0  0  0999 V2000
    1.1566    0.3060   -0.0757 O   0  0  0  0  0  0  0  0  0  0  0  0
    5.5514    1.5089   -0.3174 O   0  0  0  0  0  0  0  0  0  0  0  0
    3.2653    1.2101   -0.2500 N   0  0  0  0  0  0  0  0  0  0  0  0
    3.1370   -1.1146    0.1379 C   0  0  3  0  0  0  0  0  0  0  0  0
    4.6107   -0.6712    0.0741 C   0  0  0  0  0  0  0  0  0  0  0  0
    2.3758    0.1928   -0.0610 C   0  0  0  0  0  0  0  0  0  0  0  0
    2.8641   -1.8221    1.4691 C   0  0  0  0  0  0  0  0  0  0  0  0
    2.7807   -2.0035   -1.0698 C   0  0  0  0  0  0  0  0  0  0  0  0
    4.5619    0.8035   -0.1877 C   0  0  0  0  0  0  0  0  0  0  0  0
    2.1530   -1.2081    2.5144 C   0  0  0  0  0  0  0  0  0  0  0  0
    3.3769   -3.1135    1.7004 C   0  0  0  0  0  0  0  0  0  0  0  0
    2.8818    2.5852   -0.4640 C   0  0  0  0  0  0  0  0  0  0  0  0
    1.9476   -1.8647    3.7316 C   0  0  0  0  0  0  0  0  0  0  0  0
    3.1689   -3.7694    2.9165 C   0  0  0  0  0  0  0  0  0  0  0  0
    2.4532   -3.1449    3.9320 C   0  0  0  0  0  0  0  0  0  0  0  0
  1  6  2  0  0  0  0
  2  9  2  0  0  0  0
  3  6  1  0  0  0  0
  3  9  1  0  0  0  0
  3 12  1  0  0  0  0
  4  5  1  0  0  0  0
  4  6  1  0  0  0  0
  4  7  1  0  0  0  0
  4  8  1  0  0  0  0
  5  9  1  0  0  0  0
  7 10  2  0  0  0  0
  7 11  1  0  0  0  0
 10 13  1  0  0  0  0
 11 14  2  0  0  0  0
 13 15  2  0  0  0  0
 14 15  1  0  0  0  0
M  END
