1107
 OpenBabel10141417513D

 13 13  0  0  1  0  0  0  0  0999 V2000
    1.4231    0.2527   -1.1734 O   0  0  0  0  0  0  0  0  0  0  0  0
    5.0284   -1.7671    1.2687 O   0  0  0  0  0  0  0  0  0  0  0  0
    4.1608    0.2203    1.8076 N   0  0  0  0  0  0  0  0  0  0  0  0
    3.1959   -0.9988   -0.1245 C   0  0  0  0  0  0  0  0  0  0  0  0
    2.8097    1.5529    0.2920 C   0  0  3  0  0  0  0  0  0  0  0  0
    2.3697    0.2636   -0.3810 C   0  0  0  0  0  0  0  0  0  0  0  0
    3.9671   -1.3525   -1.4266 C   0  0  0  0  0  0  0  0  0  0  0  0
    2.2318   -2.1765    0.1955 C   0  0  0  0  0  0  0  0  0  0  0  0
    4.2009   -0.8931    1.0209 C   0  0  0  0  0  0  0  0  0  0  0  0
    3.1291    1.2209    1.7362 C   0  0  0  0  0  0  0  0  0  0  0  0
    1.7402    2.6361    0.2101 C   0  0  0  0  0  0  0  0  0  0  0  0
    4.9469   -0.2831   -1.9010 C   0  0  0  0  0  0  0  0  0  0  0  0
    1.3576   -1.9756    1.4299 C   0  0  0  0  0  0  0  0  0  0  0  0
  1  6  2  0  0  0  0
  2  9  2  0  0  0  0
  3  9  1  0  0  0  0
  3 10  1  0  0  0  0
  4  6  1  0  0  0  0
  4  7  1  0  0  0  0
  4  8  1  0  0  0  0
  4  9  1  0  0  0  0
  5  6  1  0  0  0  0
  5 10  1  0  0  0  0
  5 11  1  0  0  0  0
  7 12  1  0  0  0  0
  8 13  1  0  0  0  0
M  END
