940
 OpenBabel10141417503D

 25 27  0  0  0  0  0  0  0  0999 V2000
    1.3494    0.2003    0.4714 O   0  0  0  0  0  0  0  0  0  0  0  0
    5.6720    0.7671    2.5448 O   0  0  0  0  0  0  0  0  0  0  0  0
    3.1830    0.1283   -0.8602 O   0  0  0  0  0  0  0  0  0  0  0  0
    0.4278    3.2142   -1.7334 N   0  3  0  0  0  0  0  0  0  0  0  0
    1.0873    2.3675   -0.6229 C   0  0  0  0  0  0  0  0  0  0  0  0
    0.9601    4.6743   -1.6596 C   0  0  0  0  0  0  0  0  0  0  0  0
    0.7362    2.6355   -3.1465 C   0  0  0  0  0  0  0  0  0  0  0  0
   -1.0985    3.2285   -1.5674 C   0  0  0  0  0  0  0  0  0  0  0  0
    0.6524    0.8928   -0.5757 C   0  0  0  0  0  0  0  0  0  0  0  0
    0.6564    5.3886   -0.3482 C   0  0  0  0  0  0  0  0  0  0  0  0
    2.2194    2.5493   -3.4811 C   0  0  0  0  0  0  0  0  0  0  0  0
    3.3369   -0.6405    1.4924 C   0  0  0  0  0  0  0  0  0  0  0  0
    2.6586   -0.0913    0.2346 C   0  0  0  0  0  0  0  0  0  0  0  0
    4.7698   -1.0685    1.2140 C   0  0  0  0  0  0  0  0  0  0  0  0
    3.2658    0.3760    2.6134 C   0  0  0  0  0  0  0  0  0  0  0  0
    5.8352   -0.3410    1.7490 C   0  0  0  0  0  0  0  0  0  0  0  0
    4.4185    1.0429    3.0315 C   0  0  0  0  0  0  0  0  0  0  0  0
    5.0463   -2.1821    0.4020 C   0  0  0  0  0  0  0  0  0  0  0  0
    2.0375    0.7068    3.2143 C   0  0  0  0  0  0  0  0  0  0  0  0
    7.1549   -0.7173    1.4828 C   0  0  0  0  0  0  0  0  0  0  0  0
    4.3391    2.0528    3.9942 C   0  0  0  0  0  0  0  0  0  0  0  0
    6.3652   -2.5549    0.1350 C   0  0  0  0  0  0  0  0  0  0  0  0
    1.9558    1.7261    4.1618 C   0  0  0  0  0  0  0  0  0  0  0  0
    7.4195   -1.8244    0.6775 C   0  0  0  0  0  0  0  0  0  0  0  0
    3.1079    2.4020    4.5498 C   0  0  0  0  0  0  0  0  0  0  0  0
  1  9  1  0  0  0  0
  1 13  1  0  0  0  0
  2 16  1  0  0  0  0
  2 17  1  0  0  0  0
  3 13  2  0  0  0  0
  4  5  1  0  0  0  0
  4  6  1  0  0  0  0
  4  7  1  0  0  0  0
  4  8  1  0  0  0  0
  5  9  1  0  0  0  0
  6 10  1  0  0  0  0
  7 11  1  0  0  0  0
 12 13  1  0  0  0  0
 12 14  1  0  0  0  0
 12 15  1  0  0  0  0
 14 16  1  0  0  0  0
 14 18  2  0  0  0  0
 15 17  1  0  0  0  0
 15 19  2  0  0  0  0
 16 20  2  0  0  0  0
 17 21  2  0  0  0  0
 18 22  1  0  0  0  0
 19 23  1  0  0  0  0
 20 24  1  0  0  0  0
 21 25  1  0  0  0  0
 22 24  2  0  0  0  0
 23 25  2  0  0  0  0
M  CHG  1   4   1
M  END
