1028
 OpenBabel10141417483D

  8  7  0  0  0  0  0  0  0  0999 V2000
    2.9704    0.5292   -1.5977 Cl  0  0  0  0  0  0  0  0  0  0  0  0
    0.7013   -0.1628    0.0872 Cl  0  0  0  0  0  0  0  0  0  0  0  0
    2.7926   -1.5421    1.7925 F   0  0  0  0  0  0  0  0  0  0  0  0
    2.9825   -2.2676   -0.2592 F   0  0  0  0  0  0  0  0  0  0  0  0
    4.6262   -0.9931    0.6252 O   0  0  0  0  0  0  0  0  0  0  0  0
    3.2168   -1.2022    0.5468 C   0  0  0  0  0  0  0  0  0  0  0  0
    2.4797    0.0532    0.0598 C   0  0  0  0  0  0  0  0  0  0  0  0
    5.3044   -2.1682    1.0422 C   0  0  0  0  0  0  0  0  0  0  0  0
  1  7  1  0  0  0  0
  2  7  1  0  0  0  0
  3  6  1  0  0  0  0
  4  6  1  0  0  0  0
  5  6  1  0  0  0  0
  5  8  1  0  0  0  0
  6  7  1  0  0  0  0
M  END
