474
 OpenBabel10141417503D

 19 19  0  0  1  0  0  0  0  0999 V2000
    1.1063   -0.0915   -0.7532 O   0  0  0  0  0  0  0  0  0  0  0  0
    4.7362    1.8111    1.5608 O   0  0  0  0  0  0  0  0  0  0  0  0
    4.1053   -2.6207    1.5763 O   0  0  0  0  0  0  0  0  0  0  0  0
    2.7342   -1.4147    0.1719 N   0  0  0  0  0  0  0  0  0  0  0  0
    4.3425   -0.3960    1.5209 N   0  0  0  0  0  0  0  0  0  0  0  0
    3.1420    1.0195   -0.0813 C   0  0  3  0  0  0  0  0  0  0  0  0
    3.9431    1.1415   -1.4242 C   0  0  3  0  0  0  0  0  0  0  0  0
    2.2688    2.2861    0.1523 C   0  0  0  0  0  0  0  0  0  0  0  0
    2.2189   -0.1907   -0.2286 C   0  0  0  0  0  0  0  0  0  0  0  0
    4.1112    0.8701    1.0720 C   0  0  0  0  0  0  0  0  0  0  0  0
    4.9343    2.3239   -1.5021 C   0  0  0  0  0  0  0  0  0  0  0  0
    3.7461   -1.5458    1.0987 C   0  0  0  0  0  0  0  0  0  0  0  0
    1.4206    2.2484    1.4049 C   0  0  0  0  0  0  0  0  0  0  0  0
    4.6975   -0.0852   -1.7480 C   0  0  0  0  0  0  0  0  0  0  0  0
    2.0366   -2.6218   -0.2300 C   0  0  0  0  0  0  0  0  0  0  0  0
    1.7597    2.8424    2.5565 C   0  0  0  0  0  0  0  0  0  0  0  0
    5.2741   -1.1192   -1.9632 C   0  0  0  0  0  0  0  0  0  0  0  0
    5.9386   -2.4143   -2.1685 C   0  0  0  0  0  0  0  0  0  0  0  0
    7.3114   -2.4509   -1.5170 C   0  0  0  0  0  0  0  0  0  0  0  0
  1  9  2  0  0  0  0
  2 10  2  0  0  0  0
  3 12  2  0  0  0  0
  4  9  1  0  0  0  0
  4 12  1  0  0  0  0
  4 15  1  0  0  0  0
  5 10  1  0  0  0  0
  5 12  1  0  0  0  0
  6  7  1  0  0  0  0
  6  8  1  0  0  0  0
  6  9  1  0  0  0  0
  6 10  1  0  0  0  0
  7 11  1  0  0  0  0
  7 14  1  0  0  0  0
  8 13  1  0  0  0  0
 13 16  2  0  0  0  0
 14 17  3  0  0  0  0
 17 18  1  0  0  0  0
 18 19  1  0  0  0  0
M  END
