333
 OpenBabel10141417543D

 23 24  0  0  1  0  0  0  0  0999 V2000
    3.6751   -0.9336   -1.0682 O   0  0  0  0  0  0  0  0  0  0  0  0
    4.5343    1.4279    3.0033 N   0  0  0  0  0  0  0  0  0  0  0  0
    2.8586    1.3677   -0.7841 C   0  0  0  0  0  0  0  0  0  0  0  0
    3.1854    1.5982    0.7883 C   0  0  0  0  0  0  0  0  0  0  0  0
    4.4900    1.1016    1.5357 C   0  0  3  0  0  0  0  0  0  0  0  0
    3.9992    1.9461   -1.7102 C   0  0  0  0  0  0  0  0  0  0  0  0
    1.4842    2.1636   -1.0379 C   0  0  0  0  0  0  0  0  0  0  0  0
    2.7287   -0.1954   -1.0995 C   0  0  0  0  0  0  0  0  0  0  0  0
    4.8218   -0.3926    1.4453 C   0  0  0  0  0  0  0  0  0  0  0  0
    1.4118   -0.8330   -1.5450 C   0  0  0  0  0  0  0  0  0  0  0  0
    4.7771    3.0718   -1.3804 C   0  0  0  0  0  0  0  0  0  0  0  0
    1.3708    3.2156   -1.9752 C   0  0  0  0  0  0  0  0  0  0  0  0
    4.2671    1.3502   -2.9642 C   0  0  0  0  0  0  0  0  0  0  0  0
    0.3189    1.8745   -0.2923 C   0  0  0  0  0  0  0  0  0  0  0  0
    4.6457    2.8496    3.3106 C   0  0  0  0  0  0  0  0  0  0  0  0
    3.4962    0.8099    3.8270 C   0  0  0  0  0  0  0  0  0  0  0  0
    0.9499   -0.4507   -2.9392 C   0  0  0  0  0  0  0  0  0  0  0  0
    5.8476    3.4870   -2.1941 C   0  0  0  0  0  0  0  0  0  0  0  0
    0.1952    3.9735   -2.1015 C   0  0  0  0  0  0  0  0  0  0  0  0
    5.3696    1.7240   -3.7431 C   0  0  0  0  0  0  0  0  0  0  0  0
   -0.8636    2.6187   -0.4342 C   0  0  0  0  0  0  0  0  0  0  0  0
    6.1777    2.7784   -3.3452 C   0  0  0  0  0  0  0  0  0  0  0  0
   -0.9157    3.6891   -1.3177 C   0  0  0  0  0  0  0  0  0  0  0  0
  1  8  2  0  0  0  0
  2  5  1  0  0  0  0
  2 15  1  0  0  0  0
  2 16  1  0  0  0  0
  3  4  1  0  0  0  0
  3  6  1  0  0  0  0
  3  7  1  0  0  0  0
  3  8  1  0  0  0  0
  4  5  1  0  0  0  0
  5  9  1  0  0  0  0
  6 11  2  0  0  0  0
  6 13  1  0  0  0  0
  7 12  2  0  0  0  0
  7 14  1  0  0  0  0
  8 10  1  0  0  0  0
 10 17  1  0  0  0  0
 11 18  1  0  0  0  0
 12 19  1  0  0  0  0
 13 20  2  0  0  0  0
 14 21  2  0  0  0  0
 18 22  2  0  0  0  0
 19 23  2  0  0  0  0
 20 22  1  0  0  0  0
 21 23  1  0  0  0  0
M  END
