703
 OpenBabel10141417493D

 14 14  0  0  0  0  0  0  0  0999 V2000
    0.9329   -0.3142   -0.2997 S   0  0  0  0  0  0  0  0  0  0  0  0
    3.4561    1.4832   -0.0985 S   0  0  0  0  0  0  0  0  0  0  0  0
    0.3679   -0.3107    1.0309 O   0  0  0  0  0  0  0  0  0  0  0  0
    0.4733    0.5886   -1.3345 O   0  0  0  0  0  0  0  0  0  0  0  0
    5.7093    3.3240    0.9618 O   0  0  0  0  0  0  0  0  0  0  0  0
    4.7660   -0.6908    0.1061 N   0  0  0  0  0  0  0  0  0  0  0  0
    3.4760   -1.1399   -0.0328 N   0  0  0  0  0  0  0  0  0  0  0  0
    0.6308   -1.8663   -0.9107 N   0  0  0  0  0  0  0  0  0  0  0  0
    6.1723    1.2201    0.1489 N   0  0  0  0  0  0  0  0  0  0  0  0
    2.6899   -0.1028   -0.1337 C   0  0  0  0  0  0  0  0  0  0  0  0
    5.0043    0.6683    0.0842 C   0  0  0  0  0  0  0  0  0  0  0  0
    5.8247   -1.6778    0.1623 C   0  0  0  0  0  0  0  0  0  0  0  0
    6.2828    2.5846    0.1692 C   0  0  0  0  0  0  0  0  0  0  0  0
    7.3154    3.1131   -0.7904 C   0  0  0  0  0  0  0  0  0  0  0  0
  1  3  2  0  0  0  0
  1  4  2  0  0  0  0
  1  8  1  0  0  0  0
  1 10  1  0  0  0  0
  2 10  1  0  0  0  0
  2 11  1  0  0  0  0
  5 13  2  0  0  0  0
  6  7  1  0  0  0  0
  6 11  1  0  0  0  0
  6 12  1  0  0  0  0
  7 10  2  0  0  0  0
  9 11  2  0  0  0  0
  9 13  1  0  0  0  0
 13 14  1  0  0  0  0
M  END
