902
 OpenBabel10141417493D

 21 24  0  0  1  0  0  0  0  0999 V2000
    0.0306   -2.0543   -0.5789 S   0  0  0  0  0  0  0  0  0  0  0  0
    0.1820    2.7160   -3.6041 N   0  0  0  0  0  0  0  0  0  0  0  0
    0.0376    0.8788    0.5184 N   0  0  0  0  0  0  0  0  0  0  0  0
   -0.6787    2.3444   -1.4011 C   0  0  3  0  0  0  0  0  0  0  0  0
   -0.9106    3.7794   -1.8680 C   0  0  0  0  0  0  0  0  0  0  0  0
    0.1908    1.7354   -2.5065 C   0  0  0  0  0  0  0  0  0  0  0  0
   -0.9393    3.6246   -3.3764 C   0  0  0  0  0  0  0  0  0  0  0  0
   -0.0712    2.2709    0.0059 C   0  0  0  0  0  0  0  0  0  0  0  0
    0.1392    2.0871   -4.9156 C   0  0  0  0  0  0  0  0  0  0  0  0
    1.3052    0.2599    0.3587 C   0  0  0  0  0  0  0  0  0  0  0  0
   -1.1863    0.1654    0.6294 C   0  0  0  0  0  0  0  0  0  0  0  0
    1.4336   -1.0641   -0.1040 C   0  0  0  0  0  0  0  0  0  0  0  0
   -1.3081   -1.1700    0.1974 C   0  0  0  0  0  0  0  0  0  0  0  0
    2.4860    0.9360    0.7269 C   0  0  0  0  0  0  0  0  0  0  0  0
   -2.3181    0.7652    1.2178 C   0  0  0  0  0  0  0  0  0  0  0  0
    2.7030   -1.6496   -0.2463 C   0  0  0  0  0  0  0  0  0  0  0  0
   -2.5324   -1.8486    0.3176 C   0  0  0  0  0  0  0  0  0  0  0  0
    3.7457    0.3463    0.5905 C   0  0  0  0  0  0  0  0  0  0  0  0
   -3.5315    0.0825    1.3405 C   0  0  0  0  0  0  0  0  0  0  0  0
    3.8552   -0.9457    0.0949 C   0  0  0  0  0  0  0  0  0  0  0  0
   -3.6406   -1.2244    0.8847 C   0  0  0  0  0  0  0  0  0  0  0  0
  1 12  1  0  0  0  0
  1 13  1  0  0  0  0
  2  6  1  0  0  0  0
  2  7  1  0  0  0  0
  2  9  1  0  0  0  0
  3  8  1  0  0  0  0
  3 10  1  0  0  0  0
  3 11  1  0  0  0  0
  4  5  1  0  0  0  0
  4  6  1  0  0  0  0
  4  8  1  0  0  0  0
  5  7  1  0  0  0  0
 10 12  1  0  0  0  0
 10 14  2  0  0  0  0
 11 13  1  0  0  0  0
 11 15  2  0  0  0  0
 12 16  2  0  0  0  0
 13 17  2  0  0  0  0
 14 18  1  0  0  0  0
 15 19  1  0  0  0  0
 16 20  1  0  0  0  0
 17 21  1  0  0  0  0
 18 20  2  0  0  0  0
 19 21  2  0  0  0  0
M  END
