553
 OpenBabel10141417483D

 16 18  0  0  0  0  0  0  0  0999 V2000
    2.5554   -1.1968    0.1384 O   0  0  0  0  0  0  0  0  0  0  0  0
   -2.3083   -1.2559    0.2394 O   0  0  0  0  0  0  0  0  0  0  0  0
    0.0873   -2.7222    0.3254 O   0  0  0  0  0  0  0  0  0  0  0  0
   -4.5975   -1.1528    0.2626 O   0  0  0  0  0  0  0  0  0  0  0  0
    1.3871    0.7300   -0.0036 C   0  0  0  0  0  0  0  0  0  0  0  0
    1.3030   -0.6554    0.1086 C   0  0  0  0  0  0  0  0  0  0  0  0
   -1.0345    0.8095    0.0270 C   0  0  0  0  0  0  0  0  0  0  0  0
   -1.0662   -0.5839    0.1407 C   0  0  0  0  0  0  0  0  0  0  0  0
    0.0994   -1.3612    0.1695 C   0  0  0  0  0  0  0  0  0  0  0  0
    0.1962    1.4815   -0.0502 C   0  0  0  0  0  0  0  0  0  0  0  0
    2.7746    1.0330   -0.0398 C   0  0  0  0  0  0  0  0  0  0  0  0
   -2.2899    1.5461   -0.0020 C   0  0  0  0  0  0  0  0  0  0  0  0
    3.4378   -0.1687    0.0512 C   0  0  0  0  0  0  0  0  0  0  0  0
   -3.4490    0.8868    0.0819 C   0  0  0  0  0  0  0  0  0  0  0  0
   -3.5165   -0.5782    0.2041 C   0  0  0  0  0  0  0  0  0  0  0  0
   -0.3414   -3.3704   -0.8709 C   0  0  0  0  0  0  0  0  0  0  0  0
  1  6  1  0  0  0  0
  1 13  1  0  0  0  0
  2  8  1  0  0  0  0
  2 15  1  0  0  0  0
  3  9  1  0  0  0  0
  3 16  1  0  0  0  0
  4 15  2  0  0  0  0
  5  6  2  0  0  0  0
  5 10  1  0  0  0  0
  5 11  1  0  0  0  0
  6  9  1  0  0  0  0
  7  8  1  0  0  0  0
  7 10  2  0  0  0  0
  7 12  1  0  0  0  0
  8  9  2  0  0  0  0
 11 13  2  0  0  0  0
 12 14  2  0  0  0  0
 14 15  1  0  0  0  0
M  END
