563
 OpenBabel10141417503D

 33 35  0  0  1  0  0  0  0  0999 V2000
    5.8473   -3.0016   -0.1879 O   0  0  0  0  0  0  0  0  0  0  0  0
    1.9220   -0.8692   -2.1778 O   0  0  0  0  0  0  0  0  0  0  0  0
    6.0508   -3.6139   -2.3242 O   0  0  0  0  0  0  0  0  0  0  0  0
    1.5030   -6.0923   -3.5633 O   0  0  0  0  0  0  0  0  0  0  0  0
    3.0628   -4.6421   -4.2005 O   0  0  0  0  0  0  0  0  0  0  0  0
    1.5863   -0.3751   -8.6348 N   0  0  0  0  0  0  0  0  0  0  0  0
    3.4813   -2.4273   -2.8308 N   0  0  0  0  0  0  0  0  0  0  0  0
    2.9775   -0.3306  -11.9132 N   0  0  0  0  0  0  0  0  0  0  0  0
    3.4349   -3.0556  -11.4945 N   0  0  0  0  0  0  0  0  0  0  0  0
    3.3829   -3.4990  -13.7185 N   0  0  0  0  0  0  0  0  0  0  0  0
    3.3507   -1.7757  -15.3113 N   0  0  0  0  0  0  0  0  0  0  0  0
    3.2732    0.4614  -14.7043 N   0  0  0  0  0  0  0  0  0  0  0  0
    3.4362   -3.9992  -15.9740 N   0  0  0  0  0  0  0  0  0  0  0  0
    3.8373   -2.8904   -1.5025 C   0  0  1  0  0  0  0  0  0  0  0  0
    2.9486   -4.0664   -1.0715 C   0  0  0  0  0  0  0  0  0  0  0  0
    1.7681   -0.6619   -7.2710 C   0  0  0  0  0  0  0  0  0  0  0  0
    3.0468   -5.3673   -1.8820 C   0  0  0  0  0  0  0  0  0  0  0  0
    2.7575    0.0640   -9.4521 C   0  0  0  0  0  0  0  0  0  0  0  0
    2.2349   -1.2057   -4.5020 C   0  0  0  0  0  0  0  0  0  0  0  0
    2.5163   -1.4625   -3.0576 C   0  0  0  0  0  0  0  0  0  0  0  0
    2.9714   -1.2106   -6.8098 C   0  0  0  0  0  0  0  0  0  0  0  0
    0.7720   -0.4632   -6.2874 C   0  0  0  0  0  0  0  0  0  0  0  0
    5.3386   -3.2058   -1.4238 C   0  0  0  0  0  0  0  0  0  0  0  0
    3.2195   -1.4357   -5.4550 C   0  0  0  0  0  0  0  0  0  0  0  0
    0.9939   -0.7261   -4.9192 C   0  0  0  0  0  0  0  0  0  0  0  0
    3.0118   -0.8374  -10.6535 C   0  0  0  0  0  0  0  0  0  0  0  0
    0.3091    0.2289   -9.0276 C   0  0  0  0  0  0  0  0  0  0  0  0
    2.5605   -5.2930   -3.3112 C   0  0  0  0  0  0  0  0  0  0  0  0
    3.3172   -2.1723  -10.4732 C   0  0  0  0  0  0  0  0  0  0  0  0
    3.1484   -1.2265  -12.9529 C   0  0  0  0  0  0  0  0  0  0  0  0
    3.3078   -2.5997  -12.7416 C   0  0  0  0  0  0  0  0  0  0  0  0
    3.2585   -0.8883  -14.3040 C   0  0  0  0  0  0  0  0  0  0  0  0
    3.3885   -3.0579  -14.9678 C   0  0  0  0  0  0  0  0  0  0  0  0
  1 23  1  0  0  0  0
  2 20  2  0  0  0  0
  3 23  2  0  0  0  0
  4 28  1  0  0  0  0
  5 28  2  0  0  0  0
  6 16  1  0  0  0  0
  6 18  1  0  0  0  0
  6 27  1  0  0  0  0
  7 20  1  0  0  0  0
  8 26  1  0  0  0  0
  8 30  2  0  0  0  0
  9 29  1  0  0  0  0
  9 31  2  0  0  0  0
 10 31  1  0  0  0  0
 10 33  2  0  0  0  0
 11 32  2  0  0  0  0
 11 33  1  0  0  0  0
 12 32  1  0  0  0  0
 13 33  1  0  0  0  0
 14  7  1  6  0  0  0
 14 15  1  0  0  0  0
 14 23  1  0  0  0  0
 15 17  1  0  0  0  0
 16 21  2  0  0  0  0
 16 22  1  0  0  0  0
 17 28  1  0  0  0  0
 18 26  1  0  0  0  0
 19 20  1  0  0  0  0
 19 24  2  0  0  0  0
 19 25  1  0  0  0  0
 21 24  1  0  0  0  0
 22 25  2  0  0  0  0
 26 29  2  0  0  0  0
 30 31  1  0  0  0  0
 30 32  1  0  0  0  0
M  END
