[NO NAME]
 OpenBabel10141419233D
Created with ChemWriter - http://chemwriter.com
 22 25  0  0  1  0  0  0  0  0999 V2000
   -0.0565   -7.8074   -5.8806 C   0  0  0  0  0  0  0  0  0  0  0  0
   -3.2240   -6.9938   -3.4722 C   0  0  0  0  0  0  0  0  0  0  0  0
    0.5711   -5.4547   -4.7968 C   0  0  0  0  0  0  0  0  0  0  0  0
    1.2218   -8.6136   -5.5287 C   0  0  0  0  0  0  0  0  0  0  0  0
   -0.7255   -5.0153   -5.6915 C   0  0  0  0  0  0  0  0  0  0  0  0
   -1.6835   -3.1156   -3.7689 C   0  0  0  0  0  0  0  0  0  0  0  0
   -3.3989   -3.6738   -1.7433 C   0  0  0  0  0  0  0  0  0  0  0  0
   -2.1829   -6.6585   -4.5680 C   0  0  2  0  0  0  0  0  0  0  0  0
   -2.1467   -5.2491   -5.0786 C   0  0  1  0  0  0  0  0  0  0  0  0
    0.4833   -6.8473   -3.8421 C   0  0  1  0  0  0  0  0  0  0  0  0
    1.0930   -6.3934   -2.5072 C   0  0  0  0  0  0  0  0  0  0  0  0
   -0.8185   -7.3094   -4.4116 C   0  0  1  0  0  0  0  0  0  0  0  0
   -2.7971   -4.1154   -4.1747 C   0  0  1  0  0  0  0  0  0  0  0  0
   -3.9141   -3.4590   -5.0236 C   0  0  0  0  0  0  0  0  0  0  0  0
   -1.0046   -3.7341   -2.5369 C   0  0  0  0  0  0  0  0  0  0  0  0
   -1.9356   -3.4967   -1.4235 C   0  0  0  0  0  0  0  0  0  0  0  0
   -1.5518   -3.1243   -0.2681 O   0  0  0  0  0  0  0  0  0  0  0  0
   -3.4837   -4.5052   -2.8307 C   0  0  0  0  0  0  0  0  0  0  0  0
   -3.6762   -5.9436   -2.4781 C   0  0  0  0  0  0  0  0  0  0  0  0
    1.0070   -8.5461   -4.0617 C   0  0  2  0  0  0  0  0  0  0  0  0
    1.7739   -9.2564   -2.9603 C   0  0  0  0  0  0  0  0  0  0  0  0
   -0.1330   -9.5740   -3.9903 O   0  0  0  0  0  0  0  0  0  0  0  0
  2 19  1  0  0  0  0
  3  5  1  0  0  0  0
  4  1  1  0  0  0  0
  6 15  1  0  0  0  0
  7 16  1  0  0  0  0
  8  9  1  0  0  0  0
  8  2  1  6  0  0  0
  9 13  1  0  0  0  0
  9  5  1  1  0  0  0
 10 20  1  0  0  0  0
 10  3  1  0  0  0  0
 10 11  1  1  0  0  0
 12  8  1  0  0  0  0
 12 10  1  0  0  0  0
 12  1  1  1  0  0  0
 13 18  1  0  0  0  0
 13  6  1  0  0  0  0
 13 14  1  1  0  0  0
 15 16  1  0  0  0  0
 16 17  2  0  0  0  0
 18  7  2  0  0  0  0
 19 18  1  0  0  0  0
 20  4  1  0  0  0  0
 20 22  1  1  0  0  0
 20 21  1  0  0  0  0
M  END
