
 OpenBabel10141417493D

 15 15  0  0  0  0  0  0  0  0999 V2000
    5.6390   -5.2419    0.6019 C   0  0  0  0  0  0  0  0  0  0  0  0
    4.7044   -6.2260    0.3133 C   0  0  0  0  0  0  0  0  0  0  0  0
    3.8643   -3.5639    0.5476 C   0  0  0  0  0  0  0  0  0  0  0  0
    2.9347   -4.5754    0.2659 C   0  0  0  0  0  0  0  0  0  0  0  0
    5.2163   -3.9133    0.7186 C   0  0  0  0  0  0  0  0  0  0  0  0
    4.8410   -1.1779   -1.2421 C   0  0  0  0  0  0  0  0  0  0  0  0
    5.8684   -1.0294   -0.6053 O   0  0  0  0  0  0  0  0  0  0  0  0
    3.4159   -1.3051   -0.6532 C   0  0  1  0  0  0  0  0  0  0  0  0
    3.4234   -2.1183    0.6653 C   0  0  0  0  0  0  0  0  0  0  0  0
    4.8008   -1.1871   -2.6037 O   0  0  0  0  0  0  0  0  0  0  0  0
    5.0526   -7.5422    0.1882 O   0  0  0  0  0  0  0  0  0  0  0  0
    3.3643   -5.8907    0.1449 C   0  0  0  0  0  0  0  0  0  0  0  0
    2.4504   -6.8632   -0.1453 O   0  0  0  0  0  0  0  0  0  0  0  0
    2.9224    0.1277   -0.4012 C   0  0  0  0  0  0  0  0  0  0  0  0
    2.5265   -1.8934   -1.7093 N   0  0  0  0  0  0  0  0  0  0  0  0
  1  5  1  0  0  0  0
  2  1  2  0  0  0  0
  2 12  1  0  0  0  0
  4  3  1  0  0  0  0
  5  3  2  0  0  0  0
  6  7  2  0  0  0  0
  8 14  1  1  0  0  0
  8 15  1  0  0  0  0
  8  9  1  0  0  0  0
  8  6  1  0  0  0  0
  9  3  1  0  0  0  0
 10  6  1  0  0  0  0
 11  2  1  0  0  0  0
 12  4  2  0  0  0  0
 12 13  1  0  0  0  0
M  END
