1214
 OpenBabel10141417493D

 22 22  0  0  1  0  0  0  0  0999 V2000
    1.3584    0.0094    0.4728 O   0  0  0  0  0  0  0  0  0  0  0  0
   -0.6392    2.9339   -0.5534 O   0  0  0  0  0  0  0  0  0  0  0  0
    6.8924   -0.3268    0.1744 O   0  0  0  0  0  0  0  0  0  0  0  0
    7.6966    0.1334    2.3226 O   0  0  0  0  0  0  0  0  0  0  0  0
   -2.4312    1.9606    1.5872 N   0  0  0  0  0  0  0  0  0  0  0  0
   -0.1958    1.9310    0.3756 C   0  0  3  0  0  0  0  0  0  0  0  0
   -1.4165    1.1321    0.8855 C   0  0  0  0  0  0  0  0  0  0  0  0
   -3.5719    1.1503    2.0695 C   0  0  0  0  0  0  0  0  0  0  0  0
    0.8281    1.0500   -0.3670 C   0  0  0  0  0  0  0  0  0  0  0  0
    2.7307   -0.0568    0.5635 C   0  0  0  0  0  0  0  0  0  0  0  0
    3.3456   -1.3194    0.6931 C   0  0  0  0  0  0  0  0  0  0  0  0
    4.7648   -1.4121    0.6281 C   0  0  0  0  0  0  0  0  0  0  0  0
    4.9164    1.0349    0.4862 C   0  0  0  0  0  0  0  0  0  0  0  0
    5.5245   -0.2259    0.5105 C   0  0  0  0  0  0  0  0  0  0  0  0
   -4.5893    2.0442    2.7944 C   0  0  0  0  0  0  0  0  0  0  0  0
   -4.2996    0.4025    0.9452 C   0  0  0  0  0  0  0  0  0  0  0  0
    3.5207    1.0949    0.5585 C   0  0  0  0  0  0  0  0  0  0  0  0
    2.5059   -2.5517    0.9232 C   0  0  0  0  0  0  0  0  0  0  0  0
    5.4839   -2.7378    0.6379 C   0  0  0  0  0  0  0  0  0  0  0  0
    5.6389    2.3423    0.3402 C   0  0  0  0  0  0  0  0  0  0  0  0
    7.8507    0.0357    1.1261 C   0  0  0  0  0  0  0  0  0  0  0  0
    9.1071    0.4181    0.3788 C   0  0  0  0  0  0  0  0  0  0  0  0
  1  9  1  0  0  0  0
  1 10  1  0  0  0  0
  2  6  1  0  0  0  0
  3 14  1  0  0  0  0
  3 21  1  0  0  0  0
  4 21  2  0  0  0  0
  5  7  1  0  0  0  0
  5  8  1  0  0  0  0
  6  7  1  0  0  0  0
  6  9  1  0  0  0  0
  8 15  1  0  0  0  0
  8 16  1  0  0  0  0
 10 11  2  0  0  0  0
 10 17  1  0  0  0  0
 11 12  1  0  0  0  0
 11 18  1  0  0  0  0
 12 14  2  0  0  0  0
 12 19  1  0  0  0  0
 13 14  1  0  0  0  0
 13 17  2  0  0  0  0
 13 20  1  0  0  0  0
 21 22  1  0  0  0  0
M  END
