264
 OpenBabel10141417483D

 19 19  0  0  1  0  0  0  0  0999 V2000
    1.9118    0.8575    1.2647 O   0  0  0  0  0  0  0  0  0  0  0  0
   -1.1572    2.5670    0.1869 O   0  0  0  0  0  0  0  0  0  0  0  0
    7.3490    0.1732    6.7529 O   0  0  0  0  0  0  0  0  0  0  0  0
    0.7255    3.3338   -1.9468 N   0  0  0  0  0  0  0  0  0  0  0  0
    0.1196    1.9291    0.0316 C   0  0  3  0  0  0  0  0  0  0  0  0
    1.1278    2.9145   -0.5975 C   0  0  0  0  0  0  0  0  0  0  0  0
    1.6667    4.2999   -2.5375 C   0  0  0  0  0  0  0  0  0  0  0  0
    0.6301    1.4734    1.4055 C   0  0  0  0  0  0  0  0  0  0  0  0
    3.0666    3.7059   -2.7262 C   0  0  0  0  0  0  0  0  0  0  0  0
    1.1196    4.7515   -3.8927 C   0  0  0  0  0  0  0  0  0  0  0  0
    2.7381    0.9924    2.3456 C   0  0  0  0  0  0  0  0  0  0  0  0
    4.5916    1.2243    4.4373 C   0  0  0  0  0  0  0  0  0  0  0  0
    5.5832    1.3044    5.5699 C   0  0  0  0  0  0  0  0  0  0  0  0
    4.1029    1.0512    2.0662 C   0  0  0  0  0  0  0  0  0  0  0  0
    2.2969    1.0359    3.6671 C   0  0  0  0  0  0  0  0  0  0  0  0
    5.0256    1.1818    3.1062 C   0  0  0  0  0  0  0  0  0  0  0  0
    3.2195    1.1608    4.7068 C   0  0  0  0  0  0  0  0  0  0  0  0
    6.4675    0.0607    5.6364 C   0  0  0  0  0  0  0  0  0  0  0  0
    8.2020   -0.9610    6.8466 C   0  0  0  0  0  0  0  0  0  0  0  0
  1  8  1  0  0  0  0
  1 11  1  0  0  0  0
  2  5  1  0  0  0  0
  3 18  1  0  0  0  0
  3 19  1  0  0  0  0
  4  6  1  0  0  0  0
  4  7  1  0  0  0  0
  5  6  1  0  0  0  0
  5  8  1  0  0  0  0
  7  9  1  0  0  0  0
  7 10  1  0  0  0  0
 11 14  2  0  0  0  0
 11 15  1  0  0  0  0
 12 13  1  0  0  0  0
 12 16  2  0  0  0  0
 12 17  1  0  0  0  0
 13 18  1  0  0  0  0
 14 16  1  0  0  0  0
 15 17  2  0  0  0  0
M  END
