1578
 OpenBabel10141417483D

 32 33  0  0  1  0  0  0  0  0999 V2000
    3.3924   -1.1194   -3.4959 I   0  0  0  0  0  0  0  0  0  0  0  0
    6.3731    2.5163   -0.7538 I   0  0  0  0  0  0  0  0  0  0  0  0
    6.3610   -3.4657    0.7565 I   0  0  0  0  0  0  0  0  0  0  0  0
    1.2046    6.0694    0.1800 O   0  0  0  0  0  0  0  0  0  0  0  0
    2.9868    4.4116   -3.2126 O   0  0  0  0  0  0  0  0  0  0  0  0
    2.9617    7.1906   -2.8614 O   0  0  0  0  0  0  0  0  0  0  0  0
    0.9262    4.0344    1.1707 O   0  0  0  0  0  0  0  0  0  0  0  0
    0.0042    8.2471   -1.3047 O   0  0  0  0  0  0  0  0  0  0  0  0
    2.3006    1.6203   -2.2952 O   0  0  0  0  0  0  0  0  0  0  0  0
    2.3642   -2.5634    1.5944 O   0  0  0  0  0  0  0  0  0  0  0  0
    7.0396   -0.7404    2.7105 O   0  0  0  0  0  0  0  0  0  0  0  0
    3.0881    2.8687   -0.5903 N   0  0  0  0  0  0  0  0  0  0  0  0
    3.3216   -3.1171   -0.4387 N   0  0  0  0  0  0  0  0  0  0  0  0
    7.3248   -0.2629    0.4570 N   0  0  0  0  0  0  0  0  0  0  0  0
    2.2046    4.0421   -0.8858 C   0  0  2  0  0  0  0  0  0  0  0  0
    2.8889    4.9855   -1.8966 C   0  0  2  0  0  0  0  0  0  0  0  0
    2.1669    6.3359   -2.0280 C   0  0  1  0  0  0  0  0  0  0  0  0
    1.9803    6.9540   -0.6416 C   0  0  1  0  0  0  0  0  0  0  0  0
    1.8328    4.8179    0.4089 C   0  0  3  0  0  0  0  0  0  0  0  0
    1.2934    8.3299   -0.7016 C   0  0  0  0  0  0  0  0  0  0  0  0
    3.0594    1.7114   -1.3544 C   0  0  0  0  0  0  0  0  0  0  0  0
    3.9709    0.5736   -0.9612 C   0  0  0  0  0  0  0  0  0  0  0  0
    3.4739   -0.7399   -1.1420 C   0  0  0  0  0  0  0  0  0  0  0  0
    5.2751    0.6939   -0.4672 C   0  0  0  0  0  0  0  0  0  0  0  0
    4.0527   -1.8725   -0.5036 C   0  0  0  0  0  0  0  0  0  0  0  0
    5.9597   -0.4341    0.0767 C   0  0  0  0  0  0  0  0  0  0  0  0
    5.3114   -1.7035    0.1177 C   0  0  0  0  0  0  0  0  0  0  0  0
    3.3676   -4.0031   -1.5921 C   0  0  0  0  0  0  0  0  0  0  0  0
    2.4519   -3.3333    0.6361 C   0  0  0  0  0  0  0  0  0  0  0  0
    7.7562   -0.4343    1.7636 C   0  0  0  0  0  0  0  0  0  0  0  0
    1.6083   -4.5982    0.6084 C   0  0  0  0  0  0  0  0  0  0  0  0
    9.2274   -0.1482    1.9449 C   0  0  0  0  0  0  0  0  0  0  0  0
  1 23  1  0  0  0  0
  2 24  1  0  0  0  0
  3 27  1  0  0  0  0
  4 18  1  0  0  0  0
  4 19  1  0  0  0  0
  7 19  1  0  0  0  0
  8 20  1  0  0  0  0
  9 21  2  0  0  0  0
 10 29  2  0  0  0  0
 11 30  2  0  0  0  0
 12 21  1  0  0  0  0
 13 25  1  0  0  0  0
 13 28  1  0  0  0  0
 13 29  1  0  0  0  0
 14 26  1  0  0  0  0
 14 30  1  0  0  0  0
 15 12  1  1  0  0  0
 15 16  1  0  0  0  0
 15 19  1  0  0  0  0
 16 17  1  0  0  0  0
 16  5  1  6  0  0  0
 17  6  1  6  0  0  0
 17 18  1  0  0  0  0
 18 20  1  6  0  0  0
 21 22  1  0  0  0  0
 22 23  1  0  0  0  0
 22 24  2  0  0  0  0
 23 25  2  0  0  0  0
 24 26  1  0  0  0  0
 25 27  1  0  0  0  0
 26 27  2  0  0  0  0
 29 31  1  0  0  0  0
 30 32  1  0  0  0  0
M  END
