1011
 OpenBabel10141417483D

 17 18  0  0  0  0  0  0  0  0999 V2000
    1.5008    0.5093    0.1236 O   0  0  0  0  0  0  0  0  0  0  0  0
    6.4441    3.0442   -1.6973 N   0  0  0  0  0  0  0  0  0  0  0  0
    3.6471   -2.0248    2.5955 N   0  0  0  0  0  0  0  0  0  0  0  0
    3.3123    0.8337   -1.4805 C   0  0  0  0  0  0  0  0  0  0  0  0
    4.2595    2.0290   -1.3346 C   0  0  0  0  0  0  0  0  0  0  0  0
    3.9479   -0.4131   -2.1378 C   0  0  0  0  0  0  0  0  0  0  0  0
    2.1667    1.2741   -2.4307 C   0  0  0  0  0  0  0  0  0  0  0  0
    2.6982    0.3893   -0.1238 C   0  0  0  0  0  0  0  0  0  0  0  0
    3.5421   -0.2836    0.9053 C   0  0  0  0  0  0  0  0  0  0  0  0
    3.8285    3.2300   -0.7480 C   0  0  0  0  0  0  0  0  0  0  0  0
    5.5806    2.0071   -1.7856 C   0  0  0  0  0  0  0  0  0  0  0  0
    4.6889    4.3231   -0.6659 C   0  0  0  0  0  0  0  0  0  0  0  0
    4.8812    0.0197    1.1463 C   0  0  0  0  0  0  0  0  0  0  0  0
    2.9698   -1.2941    1.6720 C   0  0  0  0  0  0  0  0  0  0  0  0
    5.9741    4.1846   -1.1555 C   0  0  0  0  0  0  0  0  0  0  0  0
    5.5999   -0.7108    2.0910 C   0  0  0  0  0  0  0  0  0  0  0  0
    4.9488   -1.7194    2.7787 C   0  0  0  0  0  0  0  0  0  0  0  0
  1  8  2  0  0  0  0
  2 11  1  0  0  0  0
  2 15  2  0  0  0  0
  3 14  1  0  0  0  0
  3 17  2  0  0  0  0
  4  5  1  0  0  0  0
  4  6  1  0  0  0  0
  4  7  1  0  0  0  0
  4  8  1  0  0  0  0
  5 10  1  0  0  0  0
  5 11  2  0  0  0  0
  8  9  1  0  0  0  0
  9 13  1  0  0  0  0
  9 14  2  0  0  0  0
 10 12  2  0  0  0  0
 12 15  1  0  0  0  0
 13 16  2  0  0  0  0
 16 17  1  0  0  0  0
M  END
