
 OpenBabel10141417553D

 89 95  0  0  0  0  0  0  0  0999 V2000
   19.4483  -16.9741   -2.9040 N   0  0  0  0  0  0  0  0  0  0  0  0
   12.0408  -12.7519   -3.1906 N   0  0  0  0  0  0  0  0  0  0  0  0
   18.9917  -15.9978   -1.9070 C   0  0  2  0  0  0  0  0  0  0  0  0
   19.0526  -17.0761   -4.2350 C   0  0  0  0  0  0  0  0  0  0  0  0
   11.7684  -11.7199   -4.1219 C   0  0  0  0  0  0  0  0  0  0  0  0
   16.2492  -13.2213   -4.6978 C   0  0  2  0  0  0  0  0  0  0  0  0
   17.5586  -16.8614   -4.6482 C   0  0  1  0  0  0  0  0  0  0  0  0
   17.5422  -15.9603   -1.4153 C   0  0  0  0  0  0  0  0  0  0  0  0
   11.7105  -10.3031   -3.4703 C   0  0  1  0  0  0  0  0  0  0  0  0
   16.9840  -15.5349   -4.3335 N   0  0  0  0  0  0  0  0  0  0  0  0
   15.0335  -13.4872   -3.9295 N   0  0  0  0  0  0  0  0  0  0  0  0
   12.9332  -10.1550   -2.6584 N   0  0  0  0  0  0  0  0  0  0  0  0
   16.9937  -14.4696   -5.2033 C   0  0  0  0  0  0  0  0  0  0  0  0
   17.2038  -14.7701   -0.8025 N   0  0  0  0  0  0  0  0  0  0  0  0
   19.7807   -7.4509   -9.2484 S   0  0  0  0  0  0  0  0  0  0  0  0
   13.8670  -13.8556   -4.5959 C   0  0  0  0  0  0  0  0  0  0  0  0
   12.6360  -13.9936   -3.6899 C   0  0  2  0  0  0  0  0  0  0  0  0
   12.9339  -10.6862   -1.3639 C   0  0  0  0  0  0  0  0  0  0  0  0
   19.2046   -4.4718    1.3274 N   0  0  0  0  0  0  0  0  0  0  0  0
   17.2458  -12.2498   -4.0052 C   0  0  1  0  0  0  0  0  0  0  0  0
   17.8494   -3.7508    2.9889 C   0  0  0  0  0  0  0  0  0  0  0  0
   20.8116  -17.4161   -2.5620 C   0  0  0  0  0  0  0  0  0  0  0  0
   18.8461   -2.8280    2.8018 C   0  0  0  0  0  0  0  0  0  0  0  0
   18.1068   -4.7719    2.0426 C   0  0  0  0  0  0  0  0  0  0  0  0
   19.6599   -3.2572    1.8021 O   0  0  0  0  0  0  0  0  0  0  0  0
   19.9432  -16.2314   -0.7039 C   0  0  2  0  0  0  0  0  0  0  0  0
   14.3381  -11.0935   -0.8662 C   0  0  1  0  0  0  0  0  0  0  0  0
   19.2596   -9.5862   -7.8605 C   0  0  0  0  0  0  0  0  0  0  0  0
   14.9918   -9.4910    0.9637 C   0  0  0  0  0  0  0  0  0  0  0  0
   15.8518  -14.4550   -0.3986 C   0  0  1  0  0  0  0  0  0  0  0  0
   21.2660  -16.5017   -1.4221 C   0  0  1  0  0  0  0  0  0  0  0  0
   15.0522   -9.9339   -0.3396 N   0  0  0  0  0  0  0  0  0  0  0  0
   17.3187  -17.3283   -6.1307 C   0  0  1  0  0  0  0  0  0  0  0  0
   20.2112   -8.6629   -8.2320 O   0  0  0  0  0  0  0  0  0  0  0  0
   17.6604  -18.7998   -6.4136 C   0  0  0  0  0  0  0  0  0  0  0  0
   18.5488  -11.8666   -4.8208 C   0  0  2  0  0  0  0  0  0  0  0  0
   18.3838  -11.0517   -6.1036 C   0  0  0  0  0  0  0  0  0  0  0  0
   14.3493  -12.3571    0.0242 C   0  0  0  0  0  0  0  0  0  0  0  0
   19.3946  -10.2030   -6.5992 C   0  0  0  0  0  0  0  0  0  0  0  0
   10.8118  -13.1632   -2.5158 C   0  0  0  0  0  0  0  0  0  0  0  0
   11.4658  -14.8007   -4.2194 C   0  0  0  0  0  0  0  0  0  0  0  0
   15.7656  -12.9766    0.0810 C   0  0  1  0  0  0  0  0  0  0  0  0
   16.8733  -19.7397   -5.5391 C   0  0  0  0  0  0  0  0  0  0  0  0
   11.4430  -11.9602   -5.2794 O   0  0  0  0  0  0  0  0  0  0  0  0
   19.8683  -17.4992   -5.0628 O   0  0  0  0  0  0  0  0  0  0  0  0
   19.9045   -7.9259  -10.6011 O   0  0  0  0  0  0  0  0  0  0  0  0
   18.5654   -6.8009   -8.7567 O   0  0  0  0  0  0  0  0  0  0  0  0
   19.1870   -1.5758    3.4454 C   0  0  0  0  0  0  0  0  0  0  0  0
   15.8026   -8.2832    1.2602 C   0  0  0  0  0  0  0  0  0  0  0  0
   16.7170  -16.8464   -1.6173 O   0  0  0  0  0  0  0  0  0  0  0  0
   17.3327   -5.9892    1.8050 C   0  0  0  0  0  0  0  0  0  0  0  0
   18.1609   -9.8929   -8.6646 C   0  0  0  0  0  0  0  0  0  0  0  0
   17.7022  -14.4239   -6.2049 O   0  0  0  0  0  0  0  0  0  0  0  0
   13.8432  -14.0673   -5.8039 O   0  0  0  0  0  0  0  0  0  0  0  0
   11.9106  -10.8174   -0.6992 O   0  0  0  0  0  0  0  0  0  0  0  0
   14.3677  -10.0347    1.8643 O   0  0  0  0  0  0  0  0  0  0  0  0
   11.5349   -9.2158   -4.5535 C   0  0  2  0  0  0  0  0  0  0  0  0
   10.3905  -14.4981   -3.1718 C   0  0  1  0  0  0  0  0  0  0  0  0
   17.2447  -11.1697   -6.9077 C   0  0  0  0  0  0  0  0  0  0  0  0
   20.9652   -6.3775   -9.0963 O   0  0  0  0  0  0  0  0  0  0  0  0
   17.2318  -20.0829   -4.4194 O   0  0  0  0  0  0  0  0  0  0  0  0
   17.1223  -10.6177   -8.1631 C   0  0  0  0  0  0  0  0  0  0  0  0
   15.4065   -7.4078    2.2746 C   0  0  0  0  0  0  0  0  0  0  0  0
   16.9887   -8.0447    0.5586 C   0  0  0  0  0  0  0  0  0  0  0  0
   17.7386   -6.8997    0.8205 C   0  0  0  0  0  0  0  0  0  0  0  0
   16.1702   -6.2673    2.5443 C   0  0  0  0  0  0  0  0  0  0  0  0
   19.8586   -0.5587    2.7592 C   0  0  0  0  0  0  0  0  0  0  0  0
   18.8134   -1.3599    4.7775 C   0  0  0  0  0  0  0  0  0  0  0  0
   16.5438  -11.0519   -3.5752 O   0  0  0  0  0  0  0  0  0  0  0  0
   15.6634  -20.1188   -6.0392 N   0  0  0  0  0  0  0  0  0  0  0  0
   19.6165  -17.3553    0.1165 O   0  0  0  0  0  0  0  0  0  0  0  0
   15.0736  -14.6631   -1.5607 O   0  0  0  0  0  0  0  0  0  0  0  0
   19.3858  -11.1129   -3.9176 O   0  0  0  0  0  0  0  0  0  0  0  0
   15.9555  -17.1003   -6.5420 O   0  0  0  0  0  0  0  0  0  0  0  0
   19.8569    0.8200    4.7528 C   0  0  0  0  0  0  0  0  0  0  0  0
   16.3121  -12.9136    1.4054 O   0  0  0  0  0  0  0  0  0  0  0  0
   20.1822    0.6362    3.4084 C   0  0  0  0  0  0  0  0  0  0  0  0
   19.1293   -0.1631    5.4206 C   0  0  0  0  0  0  0  0  0  0  0  0
   18.0066   -9.5433   -9.9664 O   0  0  0  0  0  0  0  0  0  0  0  0
   10.3920  -15.5410   -2.1977 O   0  0  0  0  0  0  0  0  0  0  0  0
   12.6302   -9.2061   -5.4728 O   0  0  0  0  0  0  0  0  0  0  0  0
   22.3713  -17.0902   -0.5591 C   0  0  0  0  0  0  0  0  0  0  0  0
   20.2660    1.9989    5.3094 O   0  0  0  0  0  0  0  0  0  0  0  0
   11.3840   -7.8117   -3.9754 C   0  0  0  0  0  0  0  0  0  0  0  0
   20.5633    1.9733    6.7103 C   0  0  0  0  0  0  0  0  0  0  0  0
   19.6643    2.9751    7.4254 C   0  0  0  0  0  0  0  0  0  0  0  0
   19.0592    4.0005    9.6857 C   0  0  0  0  0  0  0  0  0  0  0  0
   19.9515    3.0167    8.9261 C   0  0  0  0  0  0  0  0  0  0  0  0
   17.5746    3.6867    9.5771 C   0  0  0  0  0  0  0  0  0  0  0  0
  3  1  1  1  0  0  0
  3  8  1  0  0  0  0
  4  1  1  0  0  0  0
  5  2  1  0  0  0  0
  6 13  1  1  0  0  0
  6 20  1  0  0  0  0
  7  4  1  6  0  0  0
  7 33  1  0  0  0  0
  9 12  1  6  0  0  0
  9  5  1  0  0  0  0
 10  7  1  0  0  0  0
 11  6  1  0  0  0  0
 12 18  1  0  0  0  0
 13 10  1  0  0  0  0
 14  8  1  0  0  0  0
 15 34  1  0  0  0  0
 16 11  1  0  0  0  0
 17  2  1  6  0  0  0
 17 16  1  0  0  0  0
 18 27  1  0  0  0  0
 19 24  2  0  0  0  0
 20 69  1  6  0  0  0
 20 36  1  0  0  0  0
 21 24  1  0  0  0  0
 22  1  1  0  0  0  0
 23 21  2  0  0  0  0
 23 25  1  0  0  0  0
 24 51  1  0  0  0  0
 25 19  1  0  0  0  0
 26  3  1  0  0  0  0
 26 31  1  0  0  0  0
 26 71  1  6  0  0  0
 27 38  1  0  0  0  0
 27 32  1  1  0  0  0
 28 39  1  0  0  0  0
 28 52  2  0  0  0  0
 29 32  1  0  0  0  0
 30 14  1  0  0  0  0
 30 72  1  6  0  0  0
 31 22  1  0  0  0  0
 31 82  1  1  0  0  0
 33 74  1  1  0  0  0
 33 35  1  0  0  0  0
 34 28  1  0  0  0  0
 36 73  1  6  0  0  0
 36 37  1  0  0  0  0
 38 42  1  0  0  0  0
 39 37  2  0  0  0  0
 40  2  1  0  0  0  0
 41 17  1  0  0  0  0
 42 30  1  0  0  0  0
 42 76  1  1  0  0  0
 43 35  1  0  0  0  0
 44  5  2  0  0  0  0
 45  4  2  0  0  0  0
 46 15  2  0  0  0  0
 47 15  2  0  0  0  0
 48 23  1  0  0  0  0
 49 29  1  0  0  0  0
 50  8  2  0  0  0  0
 51 65  2  0  0  0  0
 52 62  1  0  0  0  0
 53 13  2  0  0  0  0
 54 16  2  0  0  0  0
 55 18  2  0  0  0  0
 56 29  2  0  0  0  0
 57 81  1  6  0  0  0
 57  9  1  0  0  0  0
 58 41  1  0  0  0  0
 58 40  1  0  0  0  0
 58 80  1  1  0  0  0
 59 37  1  0  0  0  0
 60 15  1  0  0  0  0
 61 43  2  0  0  0  0
 62 59  2  0  0  0  0
 63 49  1  0  0  0  0
 64 49  2  0  0  0  0
 65 64  1  0  0  0  0
 66 63  2  0  0  0  0
 66 51  1  0  0  0  0
 67 48  1  0  0  0  0
 68 48  2  0  0  0  0
 70 43  1  0  0  0  0
 75 78  2  0  0  0  0
 77 67  2  0  0  0  0
 77 75  1  0  0  0  0
 78 68  1  0  0  0  0
 79 52  1  0  0  0  0
 83 75  1  0  0  0  0
 84 57  1  0  0  0  0
 85 83  1  0  0  0  0
 86 85  1  0  0  0  0
 87 88  1  0  0  0  0
 88 86  1  0  0  0  0
 89 87  1  0  0  0  0
M  END
