1110
 OpenBabel10141417483D

 25 27  0  0  1  0  0  0  0  0999 V2000
    3.4026    1.4102   -7.0329 Cl  0  0  0  0  0  0  0  0  0  0  0  0
    6.9309    3.7283  -10.1884 Cl  0  0  0  0  0  0  0  0  0  0  0  0
    3.8839    5.4454   -5.1536 Cl  0  0  0  0  0  0  0  0  0  0  0  0
    3.9421    8.2886   -0.6068 Cl  0  0  0  0  0  0  0  0  0  0  0  0
    5.3458    2.7577   -4.0208 O   0  0  0  0  0  0  0  0  0  0  0  0
    5.0542   -0.9384   -4.7202 N   0  0  0  0  0  0  0  0  0  0  0  0
    5.1936   -2.7099   -6.0603 N   0  0  0  0  0  0  0  0  0  0  0  0
    5.7836    1.5337   -4.6843 C   0  0  3  0  0  0  0  0  0  0  0  0
    4.7810    0.4200   -4.2659 C   0  0  0  0  0  0  0  0  0  0  0  0
    6.0268    1.8099   -6.1720 C   0  0  0  0  0  0  0  0  0  0  0  0
    6.2909    3.8380   -3.9734 C   0  0  0  0  0  0  0  0  0  0  0  0
    5.0658    1.8459   -7.2030 C   0  0  0  0  0  0  0  0  0  0  0  0
    7.3380    2.2352   -6.5087 C   0  0  0  0  0  0  0  0  0  0  0  0
    5.7314    5.0035   -3.1762 C   0  0  0  0  0  0  0  0  0  0  0  0
    5.4144   -1.9918   -3.9279 C   0  0  0  0  0  0  0  0  0  0  0  0
    4.8295   -1.4535   -5.9651 C   0  0  0  0  0  0  0  0  0  0  0  0
    5.3911    2.3417   -8.4742 C   0  0  0  0  0  0  0  0  0  0  0  0
    7.6288    2.8159   -7.7468 C   0  0  0  0  0  0  0  0  0  0  0  0
    6.6407    2.8917   -8.7152 C   0  0  0  0  0  0  0  0  0  0  0  0
    5.5512   -3.0713   -4.7949 C   0  0  0  0  0  0  0  0  0  0  0  0
    4.6217    5.7467   -3.6193 C   0  0  0  0  0  0  0  0  0  0  0  0
    6.3321    5.3789   -1.9583 C   0  0  0  0  0  0  0  0  0  0  0  0
    4.0809    6.7741   -2.8363 C   0  0  0  0  0  0  0  0  0  0  0  0
    5.7927    6.4080   -1.1759 C   0  0  0  0  0  0  0  0  0  0  0  0
    4.6541    7.0823   -1.6070 C   0  0  0  0  0  0  0  0  0  0  0  0
  1 12  1  0  0  0  0
  2 19  1  0  0  0  0
  3 21  1  0  0  0  0
  4 25  1  0  0  0  0
  5  8  1  0  0  0  0
  5 11  1  0  0  0  0
  6  9  1  0  0  0  0
  6 15  1  0  0  0  0
  6 16  1  0  0  0  0
  7 16  2  0  0  0  0
  7 20  1  0  0  0  0
  8  9  1  0  0  0  0
  8 10  1  0  0  0  0
 10 12  2  0  0  0  0
 10 13  1  0  0  0  0
 11 14  1  0  0  0  0
 12 17  1  0  0  0  0
 13 18  2  0  0  0  0
 14 21  2  0  0  0  0
 14 22  1  0  0  0  0
 15 20  2  0  0  0  0
 17 19  2  0  0  0  0
 18 19  1  0  0  0  0
 21 23  1  0  0  0  0
 22 24  2  0  0  0  0
 23 25  2  0  0  0  0
 24 25  1  0  0  0  0
M  END
