683
 OpenBabel10141417493D

 23 26  0  0  0  0  0  0  0  0999 V2000
    1.0431   -0.0196    0.4627 Cl  0  0  0  0  0  0  0  0  0  0  0  0
    4.4397   -1.2256   -2.8822 F   0  0  0  0  0  0  0  0  0  0  0  0
    6.9686    0.1248    0.1005 N   0  0  0  0  0  0  0  0  0  0  0  0
    6.5901   -2.8842    0.0651 N   0  0  0  0  0  0  0  0  0  0  0  0
    9.0832    0.8456   -0.0332 N   0  0  0  0  0  0  0  0  0  0  0  0
    5.5487    0.0868    0.1063 C   0  0  0  0  0  0  0  0  0  0  0  0
    7.7768   -0.8820    0.5895 C   0  0  0  0  0  0  0  0  0  0  0  0
    4.8551   -1.1251   -0.0833 C   0  0  0  0  0  0  0  0  0  0  0  0
    7.2396   -2.1450    1.1341 C   0  0  0  0  0  0  0  0  0  0  0  0
    5.5303   -2.4001   -0.4928 C   0  0  0  0  0  0  0  0  0  0  0  0
    7.8253    1.1454   -0.3008 C   0  0  0  0  0  0  0  0  0  0  0  0
    9.0637   -0.4096    0.4992 C   0  0  0  0  0  0  0  0  0  0  0  0
    4.8278    1.2595    0.3841 C   0  0  0  0  0  0  0  0  0  0  0  0
    3.4554   -1.1504    0.0440 C   0  0  0  0  0  0  0  0  0  0  0  0
    4.9485   -3.1859   -1.6237 C   0  0  0  0  0  0  0  0  0  0  0  0
    7.4179    2.3644   -1.0487 C   0  0  0  0  0  0  0  0  0  0  0  0
    3.4345    1.2252    0.4833 C   0  0  0  0  0  0  0  0  0  0  0  0
    2.7565    0.0217    0.3198 C   0  0  0  0  0  0  0  0  0  0  0  0
    4.4275   -2.5612   -2.7593 C   0  0  0  0  0  0  0  0  0  0  0  0
    4.9629   -4.5854   -1.5585 C   0  0  0  0  0  0  0  0  0  0  0  0
    3.8967   -3.3135   -3.8050 C   0  0  0  0  0  0  0  0  0  0  0  0
    4.4314   -5.3417   -2.6062 C   0  0  0  0  0  0  0  0  0  0  0  0
    3.8947   -4.7060   -3.7268 C   0  0  0  0  0  0  0  0  0  0  0  0
  1 18  1  0  0  0  0
  2 19  1  0  0  0  0
  3  6  1  0  0  0  0
  3  7  1  0  0  0  0
  3 11  1  0  0  0  0
  4  9  1  0  0  0  0
  4 10  2  0  0  0  0
  5 11  2  0  0  0  0
  5 12  1  0  0  0  0
  6  8  2  0  0  0  0
  6 13  1  0  0  0  0
  7  9  1  0  0  0  0
  7 12  2  0  0  0  0
  8 10  1  0  0  0  0
  8 14  1  0  0  0  0
 10 15  1  0  0  0  0
 11 16  1  0  0  0  0
 13 17  2  0  0  0  0
 14 18  2  0  0  0  0
 15 19  1  0  0  0  0
 15 20  2  0  0  0  0
 17 18  1  0  0  0  0
 19 21  2  0  0  0  0
 20 22  1  0  0  0  0
 21 23  1  0  0  0  0
 22 23  2  0  0  0  0
M  END
