235
 OpenBabel10141417493D

 16 17  0  0  0  0  0  0  0  0999 V2000
    0.8877   -0.1072    0.1512 O   0  0  0  0  0  0  0  0  0  0  0  0
    2.8447   -1.2513    0.1088 N   0  0  0  0  0  0  0  0  0  0  0  0
    9.1370   -0.3385   -1.0089 N   0  0  0  0  0  0  0  0  0  0  0  0
    1.6671    3.3923   -0.6705 N   0  0  0  0  0  0  0  0  0  0  0  0
    4.9108   -0.2308   -0.3999 C   0  0  0  0  0  0  0  0  0  0  0  0
    4.2127   -1.3419   -0.0663 C   0  0  0  0  0  0  0  0  0  0  0  0
    6.3707   -0.2799   -0.6079 C   0  0  0  0  0  0  0  0  0  0  0  0
    4.1870    1.0280   -0.5559 C   0  0  0  0  0  0  0  0  0  0  0  0
    2.8578    1.1238   -0.3832 C   0  0  0  0  0  0  0  0  0  0  0  0
    4.7819   -2.7191    0.1539 C   0  0  0  0  0  0  0  0  0  0  0  0
    2.1010   -0.1023   -0.0228 C   0  0  0  0  0  0  0  0  0  0  0  0
    7.2387    0.1630    0.3912 C   0  0  0  0  0  0  0  0  0  0  0  0
    6.9003   -0.7412   -1.8144 C   0  0  0  0  0  0  0  0  0  0  0  0
    8.6002    0.1127    0.1447 C   0  0  0  0  0  0  0  0  0  0  0  0
    8.2767   -0.7537   -1.9627 C   0  0  0  0  0  0  0  0  0  0  0  0
    2.1712    2.3555   -0.5345 C   0  0  0  0  0  0  0  0  0  0  0  0
  1 11  2  0  0  0  0
  2  6  1  0  0  0  0
  2 11  1  0  0  0  0
  3 14  2  0  0  0  0
  3 15  1  0  0  0  0
  4 16  3  0  0  0  0
  5  6  2  0  0  0  0
  5  7  1  0  0  0  0
  5  8  1  0  0  0  0
  6 10  1  0  0  0  0
  7 12  2  0  0  0  0
  7 13  1  0  0  0  0
  8  9  2  0  0  0  0
  9 11  1  0  0  0  0
  9 16  1  0  0  0  0
 12 14  1  0  0  0  0
 13 15  2  0  0  0  0
M  END
