805
 OpenBabel10141417523D

 22 24  0  0  0  0  0  0  0  0999 V2000
   -3.7785    0.5013    1.1965 O   0  0  0  0  0  0  0  0  0  0  0  0
   -1.4230   -0.3715    2.7392 N   0  0  0  0  0  0  0  0  0  0  0  0
    0.3339   -2.6460    3.6258 N   0  0  0  0  0  0  0  0  0  0  0  0
    0.2074   -5.0314    3.4895 N   0  0  0  0  0  0  0  0  0  0  0  0
    0.4429   -6.2989    3.9938 N   0  0  0  0  0  0  0  0  0  0  0  0
   -2.7830   -0.9224    2.9364 C   0  0  0  0  0  0  0  0  0  0  0  0
   -1.5902    1.0006    2.1909 C   0  0  0  0  0  0  0  0  0  0  0  0
   -0.5854   -1.2048    1.8394 C   0  0  0  0  0  0  0  0  0  0  0  0
   -3.6734   -0.8422    1.6844 C   0  0  0  0  0  0  0  0  0  0  0  0
   -2.4855    1.0639    0.9385 C   0  0  0  0  0  0  0  0  0  0  0  0
   -0.3322   -2.6538    2.3239 C   0  0  0  0  0  0  0  0  0  0  0  0
    0.5739   -3.9240    4.1678 C   0  0  0  0  0  0  0  0  0  0  0  0
    1.2293   -4.0539    5.3896 C   0  0  0  0  0  0  0  0  0  0  0  0
    1.4946   -5.3482    5.8817 C   0  0  0  0  0  0  0  0  0  0  0  0
    1.0786   -6.4656    5.1678 C   0  0  0  0  0  0  0  0  0  0  0  0
    1.7451   -2.8739    6.1653 C   0  0  0  0  0  0  0  0  0  0  0  0
    1.2669   -7.8601    5.6210 C   0  0  0  0  0  0  0  0  0  0  0  0
    0.3440   -8.8594    5.2493 C   0  0  0  0  0  0  0  0  0  0  0  0
    2.3513   -8.2569    6.4230 C   0  0  0  0  0  0  0  0  0  0  0  0
    0.4915  -10.1865    5.6664 C   0  0  0  0  0  0  0  0  0  0  0  0
    2.5034   -9.5858    6.8397 C   0  0  0  0  0  0  0  0  0  0  0  0
    1.5709  -10.5487    6.4622 C   0  0  0  0  0  0  0  0  0  0  0  0
  1  9  1  0  0  0  0
  1 10  1  0  0  0  0
  2  6  1  0  0  0  0
  2  7  1  0  0  0  0
  2  8  1  0  0  0  0
  3 11  1  0  0  0  0
  3 12  1  0  0  0  0
  4  5  1  0  0  0  0
  4 12  2  0  0  0  0
  5 15  2  0  0  0  0
  6  9  1  0  0  0  0
  7 10  1  0  0  0  0
  8 11  1  0  0  0  0
 12 13  1  0  0  0  0
 13 14  2  0  0  0  0
 13 16  1  0  0  0  0
 14 15  1  0  0  0  0
 15 17  1  0  0  0  0
 17 18  2  0  0  0  0
 17 19  1  0  0  0  0
 18 20  1  0  0  0  0
 19 21  2  0  0  0  0
 20 22  2  0  0  0  0
 21 22  1  0  0  0  0
M  END
