370
 OpenBabel10141419023D

 20 23  0  0  1  0  0  0  0  0999 V2000
    0.5003    1.8756    0.0961 N   0  0  0  0  0  0  0  0  0  0  0  0
   -0.8023    4.5242   -0.1673 N   0  0  0  0  0  0  0  0  0  0  0  0
    2.6407    1.1127    0.6145 N   0  0  0  0  0  0  0  0  0  0  0  0
   -0.7256    1.9243   -0.7161 C   0  0  3  0  0  0  0  0  0  0  0  0
   -1.3564    3.3672   -0.8990 C   0  0  0  0  0  0  0  0  0  0  0  0
    0.9498    3.0591    0.8311 C   0  0  0  0  0  0  0  0  0  0  0  0
   -0.1385    4.1051    1.0654 C   0  0  0  0  0  0  0  0  0  0  0  0
   -1.6874    0.8425   -0.2074 C   0  0  0  0  0  0  0  0  0  0  0  0
    1.4335    0.8404    0.0466 C   0  0  0  0  0  0  0  0  0  0  0  0
   -1.3428   -0.5111   -0.4311 C   0  0  0  0  0  0  0  0  0  0  0  0
   -0.0762   -0.8532   -1.1779 C   0  0  0  0  0  0  0  0  0  0  0  0
    1.1965   -0.4339   -0.4837 C   0  0  0  0  0  0  0  0  0  0  0  0
   -1.8244    5.5282    0.1221 C   0  0  0  0  0  0  0  0  0  0  0  0
   -2.8612    1.1121    0.5153 C   0  0  0  0  0  0  0  0  0  0  0  0
   -2.1649   -1.5442    0.0500 C   0  0  0  0  0  0  0  0  0  0  0  0
    2.2175   -1.4100   -0.3903 C   0  0  0  0  0  0  0  0  0  0  0  0
   -3.6883    0.0760    0.9629 C   0  0  0  0  0  0  0  0  0  0  0  0
   -3.3384   -1.2501    0.7355 C   0  0  0  0  0  0  0  0  0  0  0  0
    3.4276   -1.1112    0.2140 C   0  0  0  0  0  0  0  0  0  0  0  0
    3.5936    0.1592    0.6899 C   0  0  0  0  0  0  0  0  0  0  0  0
  1  4  1  0  0  0  0
  1  6  1  0  0  0  0
  1  9  1  0  0  0  0
  2  5  1  0  0  0  0
  2  7  1  0  0  0  0
  2 13  1  0  0  0  0
  3  9  1  0  0  0  0
  3 20  2  0  0  0  0
  4  5  1  0  0  0  0
  4  8  1  0  0  0  0
  6  7  1  0  0  0  0
  8 10  1  0  0  0  0
  8 14  2  0  0  0  0
  9 12  2  0  0  0  0
 10 11  1  0  0  0  0
 10 15  2  0  0  0  0
 11 12  1  0  0  0  0
 12 16  1  0  0  0  0
 14 17  1  0  0  0  0
 15 18  1  0  0  0  0
 16 19  2  0  0  0  0
 17 18  2  0  0  0  0
 19 20  1  0  0  0  0
M  END
