1252
 OpenBabel10141417523D

 23 25  0  0  1  0  0  0  0  0999 V2000
    1.3757   -0.6303   -0.5229 O   0  0  0  0  0  0  0  0  0  0  0  0
    3.4334   -2.0913   -2.1636 O   0  0  0  0  0  0  0  0  0  0  0  0
    5.5054   -1.2135   -2.1440 O   0  0  0  0  0  0  0  0  0  0  0  0
    2.9219   -0.9279    1.1270 N   0  0  0  0  0  0  0  0  0  0  0  0
    4.3452   -1.9394    2.6885 C   0  0  3  0  0  0  0  0  0  0  0  0
    2.8905   -2.2262    3.0666 C   0  0  3  0  0  0  0  0  0  0  0  0
    4.2061   -0.7097    1.8052 C   0  0  0  0  0  0  0  0  0  0  0  0
    2.1793   -2.0262    1.7416 C   0  0  0  0  0  0  0  0  0  0  0  0
    5.2012   -1.8375    3.9386 C   0  0  0  0  0  0  0  0  0  0  0  0
    2.7828   -3.5879    3.7270 C   0  0  0  0  0  0  0  0  0  0  0  0
    5.1050   -3.1551    4.7233 C   0  0  0  0  0  0  0  0  0  0  0  0
    3.6580   -3.6021    4.9874 C   0  0  0  0  0  0  0  0  0  0  0  0
    2.4486   -0.3152   -0.0019 C   0  0  0  0  0  0  0  0  0  0  0  0
    3.3250    0.7140   -0.6747 C   0  0  0  0  0  0  0  0  0  0  0  0
    3.6130    0.3133   -2.1269 C   0  0  3  0  0  0  0  0  0  0  0  0
    4.5302    1.3286   -2.8329 C   0  0  0  0  0  0  0  0  0  0  0  0
    4.2993   -1.0497   -2.1568 C   0  0  0  0  0  0  0  0  0  0  0  0
    3.9712    2.7309   -2.8995 C   0  0  0  0  0  0  0  0  0  0  0  0
    4.2362    3.6475   -1.8700 C   0  0  0  0  0  0  0  0  0  0  0  0
    3.1828    3.1389   -3.9817 C   0  0  0  0  0  0  0  0  0  0  0  0
    3.7231    4.9434   -1.9208 C   0  0  0  0  0  0  0  0  0  0  0  0
    2.6941    4.4460   -4.0448 C   0  0  0  0  0  0  0  0  0  0  0  0
    2.9614    5.3461   -3.0143 C   0  0  0  0  0  0  0  0  0  0  0  0
  1 13  2  0  0  0  0
  2 17  1  0  0  0  0
  3 17  2  0  0  0  0
  4  7  1  0  0  0  0
  4  8  1  0  0  0  0
  4 13  1  0  0  0  0
  5  6  1  0  0  0  0
  5  7  1  0  0  0  0
  5  9  1  0  0  0  0
  6  8  1  0  0  0  0
  6 10  1  0  0  0  0
  9 11  1  0  0  0  0
 10 12  1  0  0  0  0
 11 12  1  0  0  0  0
 13 14  1  0  0  0  0
 14 15  1  0  0  0  0
 15 16  1  0  0  0  0
 15 17  1  0  0  0  0
 16 18  1  0  0  0  0
 18 19  2  0  0  0  0
 18 20  1  0  0  0  0
 19 21  1  0  0  0  0
 20 22  2  0  0  0  0
 21 23  2  0  0  0  0
 22 23  1  0  0  0  0
M  END
