305
 OpenBabel10141417503D

 24 27  0  0  1  0  0  0  0  0999 V2000
    5.4945   -9.5792   -9.3747 O   0  0  0  0  0  0  0  0  0  0  0  0
    5.0827  -12.3515   -6.3012 O   0  0  0  0  0  0  0  0  0  0  0  0
    2.9753  -13.1088  -12.2884 O   0  0  0  0  0  0  0  0  0  0  0  0
    2.7320  -13.7346   -7.2062 O   0  0  0  0  0  0  0  0  0  0  0  0
    3.9795  -11.0127   -4.7981 O   0  0  0  0  0  0  0  0  0  0  0  0
    2.8233   -7.8749  -10.1258 N   0  0  0  0  0  0  0  0  0  0  0  0
    3.7974  -10.8527  -10.5315 N   0  0  0  0  0  0  0  0  0  0  0  0
    3.2508  -16.0792   -8.5096 N   0  0  0  0  0  0  0  0  0  0  0  0
    3.7124  -13.2695   -4.8303 N   0  0  0  0  0  0  0  0  0  0  0  0
    3.1057   -8.9709   -9.1786 C   0  0  2  0  0  0  0  0  0  0  0  0
    4.1541  -10.0648   -9.3013 C   0  0  1  0  0  0  0  0  0  0  0  0
    2.1535   -9.1474  -10.3199 C   0  0  2  0  0  0  0  0  0  0  0  0
    2.6908  -10.1919  -11.2620 C   0  0  0  0  0  0  0  0  0  0  0  0
    4.0165  -11.1259   -8.1268 C   0  0  1  0  0  0  0  0  0  0  0  0
    3.6563  -12.2041  -10.1908 C   0  0  0  0  0  0  0  0  0  0  0  0
    3.7278  -12.3990   -8.8772 C   0  0  0  0  0  0  0  0  0  0  0  0
    5.2562  -11.2499   -7.2187 C   0  0  0  0  0  0  0  0  0  0  0  0
    3.2625  -13.3104  -11.1138 C   0  0  0  0  0  0  0  0  0  0  0  0
    3.2372  -13.6543   -8.3217 C   0  0  0  0  0  0  0  0  0  0  0  0
    5.8128   -8.7188  -10.4573 C   0  0  0  0  0  0  0  0  0  0  0  0
    3.2481  -14.6937  -10.5285 C   0  0  0  0  0  0  0  0  0  0  0  0
    3.2825  -14.8712   -9.1956 C   0  0  0  0  0  0  0  0  0  0  0  0
    3.1651  -15.8137  -11.5209 C   0  0  0  0  0  0  0  0  0  0  0  0
    4.2883  -12.1182   -5.2371 C   0  0  0  0  0  0  0  0  0  0  0  0
  1 20  1  0  0  0  0
  2 17  1  0  0  0  0
  2 24  1  0  0  0  0
  3 18  2  0  0  0  0
  4 19  2  0  0  0  0
  5 24  2  0  0  0  0
  7 11  1  0  0  0  0
  7 13  1  0  0  0  0
  7 15  1  0  0  0  0
  8 22  1  0  0  0  0
  9 24  1  0  0  0  0
 10  6  1  6  0  0  0
 10 11  1  0  0  0  0
 10 12  1  0  0  0  0
 11 14  1  0  0  0  0
 11  1  1  1  0  0  0
 12  6  1  6  0  0  0
 12 13  1  0  0  0  0
 14 16  1  0  0  0  0
 14 17  1  6  0  0  0
 15 16  2  0  0  0  0
 15 18  1  0  0  0  0
 16 19  1  0  0  0  0
 18 21  1  0  0  0  0
 19 22  1  0  0  0  0
 21 22  2  0  0  0  0
 21 23  1  0  0  0  0
M  END
