680
 OpenBabel10141417483D

 30 33  0  0  0  0  0  0  0  0999 V2000
   -0.3456   -0.6373   -2.8991 S   0  0  0  0  0  0  0  0  0  0  0  0
   -3.4765   -7.8907    0.4280 O   0  0  0  0  0  0  0  0  0  0  0  0
   -0.9984   -1.5453    1.9401 O   0  0  0  0  0  0  0  0  0  0  0  0
    5.6053   -1.3338    2.4757 O   0  0  0  0  0  0  0  0  0  0  0  0
    4.3831    0.4470    1.6729 O   0  0  0  0  0  0  0  0  0  0  0  0
   -3.5662   -5.3173    1.8972 N   0  0  0  0  0  0  0  0  0  0  0  0
   -0.7615   -2.2134   -0.2741 N   0  0  0  0  0  0  0  0  0  0  0  0
    3.7943   -1.7771    1.2617 N   0  0  0  0  0  0  0  0  0  0  0  0
   -2.3828   -4.4409    1.7833 C   0  0  0  0  0  0  0  0  0  0  0  0
   -3.2547   -6.6329    2.5114 C   0  0  0  0  0  0  0  0  0  0  0  0
   -4.3135   -5.5715    0.6485 C   0  0  0  0  0  0  0  0  0  0  0  0
   -2.6718   -3.0472    1.1798 C   0  0  0  0  0  0  0  0  0  0  0  0
   -2.6243   -7.6651    1.5574 C   0  0  0  0  0  0  0  0  0  0  0  0
   -3.7167   -6.6628   -0.2535 C   0  0  0  0  0  0  0  0  0  0  0  0
   -1.3980   -2.2216    0.9829 C   0  0  0  0  0  0  0  0  0  0  0  0
    0.5375   -1.6410   -0.4529 C   0  0  0  0  0  0  0  0  0  0  0  0
   -1.2747   -2.8050   -1.4644 C   0  0  0  0  0  0  0  0  0  0  0  0
    0.8952   -0.9883   -1.6535 C   0  0  0  0  0  0  0  0  0  0  0  0
   -1.2891   -2.1313   -2.6909 C   0  0  0  0  0  0  0  0  0  0  0  0
    1.5225   -1.8924    0.5117 C   0  0  0  0  0  0  0  0  0  0  0  0
   -1.6424   -4.1430   -1.4676 C   0  0  0  0  0  0  0  0  0  0  0  0
    2.2218   -0.6110   -1.8792 C   0  0  0  0  0  0  0  0  0  0  0  0
    2.8264   -1.4834    0.2966 C   0  0  0  0  0  0  0  0  0  0  0  0
   -1.9508   -2.6974   -3.7897 C   0  0  0  0  0  0  0  0  0  0  0  0
    3.1873   -0.8497   -0.8997 C   0  0  0  0  0  0  0  0  0  0  0  0
   -2.2536   -4.7278   -2.5711 C   0  0  0  0  0  0  0  0  0  0  0  0
   -2.4839   -3.9797   -3.7066 C   0  0  0  0  0  0  0  0  0  0  0  0
    4.5773   -0.7925    1.7965 C   0  0  0  0  0  0  0  0  0  0  0  0
    6.6679   -0.4176    2.7748 C   0  0  0  0  0  0  0  0  0  0  0  0
    7.5622   -0.2623    1.5513 C   0  0  0  0  0  0  0  0  0  0  0  0
  1 18  1  0  0  0  0
  1 19  1  0  0  0  0
  2 13  1  0  0  0  0
  2 14  1  0  0  0  0
  3 15  2  0  0  0  0
  4 28  1  0  0  0  0
  4 29  1  0  0  0  0
  5 28  2  0  0  0  0
  6  9  1  0  0  0  0
  6 10  1  0  0  0  0
  6 11  1  0  0  0  0
  7 15  1  0  0  0  0
  7 16  1  0  0  0  0
  7 17  1  0  0  0  0
  8 23  1  0  0  0  0
  8 28  1  0  0  0  0
  9 12  1  0  0  0  0
 10 13  1  0  0  0  0
 11 14  1  0  0  0  0
 12 15  1  0  0  0  0
 16 18  2  0  0  0  0
 16 20  1  0  0  0  0
 17 19  1  0  0  0  0
 17 21  2  0  0  0  0
 18 22  1  0  0  0  0
 19 24  2  0  0  0  0
 20 23  2  0  0  0  0
 21 26  1  0  0  0  0
 22 25  2  0  0  0  0
 23 25  1  0  0  0  0
 24 27  1  0  0  0  0
 26 27  2  0  0  0  0
 29 30  1  0  0  0  0
M  END
