295
 OpenBabel10141417483D

 21 25  0  0  1  0  0  0  0  0999 V2000
   -1.8445    1.9235    5.1820 O   0  0  0  0  0  0  0  0  0  0  0  0
    0.5343   -0.2366    4.8151 O   0  0  0  0  0  0  0  0  0  0  0  0
   -3.3235    1.7522    7.7135 O   0  0  0  0  0  0  0  0  0  0  0  0
    1.6867    6.1267    4.6868 N   0  0  0  0  0  0  0  0  0  0  0  0
   -0.1673    3.5929    4.7636 C   0  0  1  0  0  0  0  0  0  0  0  0
    1.2327    3.8326    4.3023 C   0  0  2  0  0  0  0  0  0  0  0  0
    1.7669    4.8129    5.3865 C   0  0  1  0  0  0  0  0  0  0  0  0
   -0.5880    2.1288    4.4592 C   0  0  2  0  0  0  0  0  0  0  0  0
   -0.8569    5.0293    4.5695 C   0  0  0  0  0  0  0  0  0  0  0  0
   -0.3935    3.3294    6.2281 C   0  0  0  0  0  0  0  0  0  0  0  0
    1.8662    4.1311    6.8537 C   0  0  0  0  0  0  0  0  0  0  0  0
    0.1990    6.2926    4.2893 C   0  0  0  0  0  0  0  0  0  0  0  0
    0.4814    3.5706    7.2679 C   0  0  0  0  0  0  0  0  0  0  0  0
    0.6689    1.1562    5.0187 C   0  0  2  0  0  0  0  0  0  0  0  0
    2.0940    2.6884    3.7943 C   0  0  0  0  0  0  0  0  0  0  0  0
   -1.5431    2.5624    6.3631 C   0  0  0  0  0  0  0  0  0  0  0  0
    2.0089    1.5528    4.4220 C   0  0  0  0  0  0  0  0  0  0  0  0
    2.5599    6.1710    3.4899 C   0  0  0  0  0  0  0  0  0  0  0  0
    0.0221    3.1469    8.5235 C   0  0  0  0  0  0  0  0  0  0  0  0
   -2.0846    2.2905    7.5834 C   0  0  0  0  0  0  0  0  0  0  0  0
   -1.2834    2.5710    8.6835 C   0  0  0  0  0  0  0  0  0  0  0  0
  1 16  1  0  0  0  0
  3 20  1  0  0  0  0
  4 12  1  0  0  0  0
  4 18  1  0  0  0  0
  5  6  1  0  0  0  0
  5  8  1  0  0  0  0
  5  9  1  1  0  0  0
  5 10  1  0  0  0  0
  6  7  1  0  0  0  0
  6 15  1  6  0  0  0
  7  4  1  6  0  0  0
  7 11  1  0  0  0  0
  8  1  1  6  0  0  0
  8 14  1  0  0  0  0
  9 12  1  0  0  0  0
 10 13  2  0  0  0  0
 10 16  1  0  0  0  0
 11 13  1  0  0  0  0
 13 19  1  0  0  0  0
 14 17  1  0  0  0  0
 14  2  1  6  0  0  0
 15 17  2  0  0  0  0
 16 20  2  0  0  0  0
 19 21  2  0  0  0  0
 20 21  1  0  0  0  0
M  END
