
 OpenBabel10141417483D

 35 36  0  0  1  0  0  0  0  0999 V2000
   -2.5665   -3.3977   -3.8462 C   0  0  2  0  0  0  0  0  0  0  0  0
   -1.3549   -2.9561   -4.6841 C   0  0  2  0  0  0  0  0  0  0  0  0
   -0.1445   -3.8102   -4.2982 C   0  0  0  0  0  0  0  0  0  0  0  0
    0.2249   -3.7314   -2.9358 O   0  0  0  0  0  0  0  0  0  0  0  0
   -0.8275   -4.0407   -1.9608 C   0  0  2  0  0  0  0  0  0  0  0  0
   -2.2803   -3.3675   -2.3646 C   0  0  2  0  0  0  0  0  0  0  0  0
   -0.6346   -0.5281   -3.6216 C   0  0  1  0  0  0  0  0  0  0  0  0
   -1.0619   -1.4049   -4.7877 C   0  0  0  0  0  0  0  0  0  0  0  0
   -2.9643   -4.7472   -4.0607 O   0  0  0  0  0  0  0  0  0  0  0  0
   -3.4006   -3.8740   -1.6335 O   0  0  0  0  0  0  0  0  0  0  0  0
   -0.1079   -3.6002   -0.6112 C   0  0  0  0  0  0  0  0  0  0  0  0
   -0.7774   -3.7942    0.7482 C   0  0  0  0  0  0  0  0  0  0  0  0
   -0.0834   -4.4491    1.6538 C   0  0  0  0  0  0  0  0  0  0  0  0
   -0.6989   -4.5184    3.0098 C   0  0  0  0  0  0  0  0  0  0  0  0
    0.2843   -4.8555    3.8641 O   0  0  0  0  0  0  0  0  0  0  0  0
   -0.2396   -4.9279    5.1636 C   0  0  0  0  0  0  0  0  0  0  0  0
    0.1101   -3.6747    5.9636 C   0  0  0  0  0  0  0  0  0  0  0  0
   -0.4503   -2.3504    5.4146 C   0  0  0  0  0  0  0  0  0  0  0  0
    0.0317   -1.1052    6.1830 C   0  0  0  0  0  0  0  0  0  0  0  0
   -0.2844   -0.9827    7.6811 C   0  0  0  0  0  0  0  0  0  0  0  0
    0.4563    0.2453    8.2587 C   0  0  0  0  0  0  0  0  0  0  0  0
    0.2623    0.4124    9.7708 C   0  0  0  0  0  0  0  0  0  0  0  0
    1.0534    1.6070   10.3090 C   0  0  0  0  0  0  0  0  0  0  0  0
    0.9173    1.8189   11.7929 C   0  0  0  0  0  0  0  0  0  0  0  0
    1.3794    0.7803   12.5145 O   0  0  0  0  0  0  0  0  0  0  0  0
   -2.0037   -3.0484    1.2047 C   0  0  0  0  0  0  0  0  0  0  0  0
   -1.7941   -4.2992    3.3151 O   0  0  0  0  0  0  0  0  0  0  0  0
    0.5789    2.8548   12.3414 O   0  0  0  0  0  0  0  0  0  0  0  0
   -0.5299   -1.0889   -2.2689 C   0  0  2  0  0  0  0  0  0  0  0  0
   -0.9209   -0.6073   -0.9111 C   0  0  2  0  0  0  0  0  0  0  0  0
   -0.7972    0.8413   -0.7394 C   0  0  2  0  0  0  0  0  0  0  0  0
   -1.9795    1.4247   -1.4809 C   0  0  0  0  0  0  0  0  0  0  0  0
    0.6560   -0.7851   -2.9793 O   0  0  0  0  0  0  0  0  0  0  0  0
    0.4741    1.2433   -1.2121 O   0  0  0  0  0  0  0  0  0  0  0  0
   -2.3488   -1.0280   -0.4924 C   0  0  0  0  0  0  0  0  0  0  0  0
  1  9  1  6  0  0  0
  1  2  1  0  0  0  0
  1  6  1  0  0  0  0
  2  8  1  1  0  0  0
  2  3  1  0  0  0  0
  3  4  1  0  0  0  0
  4  5  1  0  0  0  0
  5  6  1  0  0  0  0
  5 11  1  1  0  0  0
  6 10  1  1  0  0  0
  7 33  1  0  0  0  0
  7  8  1  6  0  0  0
  7 29  1  0  0  0  0
 11 12  1  0  0  0  0
 12 13  2  0  0  0  0
 12 26  1  0  0  0  0
 13 14  1  0  0  0  0
 14 15  1  0  0  0  0
 14 27  2  0  0  0  0
 15 16  1  0  0  0  0
 16 17  1  0  0  0  0
 17 18  1  0  0  0  0
 18 19  1  0  0  0  0
 19 20  1  0  0  0  0
 20 21  1  0  0  0  0
 21 22  1  0  0  0  0
 22 23  1  0  0  0  0
 23 24  1  0  0  0  0
 24 25  1  0  0  0  0
 24 28  2  0  0  0  0
 29 33  1  1  0  0  0
 29 30  1  0  0  0  0
 30 35  1  1  0  0  0
 30 31  1  0  0  0  0
 31 34  1  6  0  0  0
 31 32  1  0  0  0  0
M  END
