461
 OpenBabel10141417523D

 17 18  0  0  0  0  0  0  0  0999 V2000
    0.4930   -0.4580   -0.3762 O   0  0  0  0  0  0  0  0  0  0  0  0
   -3.6338    8.0568   -5.2267 O   0  0  0  0  0  0  0  0  0  0  0  0
   -1.5351    4.9641   -3.1849 C   0  0  0  0  0  0  0  0  0  0  0  0
   -2.1871    6.0535   -3.9979 C   0  0  0  0  0  0  0  0  0  0  0  0
   -1.2467    2.5938   -2.6516 C   0  0  0  0  0  0  0  0  0  0  0  0
   -0.3404    2.9422   -1.6261 C   0  0  0  0  0  0  0  0  0  0  0  0
   -1.8392    3.6140   -3.4177 C   0  0  0  0  0  0  0  0  0  0  0  0
   -3.5048    6.5131   -3.3779 C   0  0  0  0  0  0  0  0  0  0  0  0
   -0.6297    5.2934   -2.1724 C   0  0  0  0  0  0  0  0  0  0  0  0
   -0.0385    4.2925   -1.4023 C   0  0  0  0  0  0  0  0  0  0  0  0
   -1.5243    1.2364   -2.8802 C   0  0  0  0  0  0  0  0  0  0  0  0
    0.2503    1.9345   -0.8465 C   0  0  0  0  0  0  0  0  0  0  0  0
   -0.0470    0.5903   -1.0709 C   0  0  0  0  0  0  0  0  0  0  0  0
   -0.9202    0.2450   -2.1011 C   0  0  0  0  0  0  0  0  0  0  0  0
   -4.1379    7.6240   -4.1943 C   0  0  0  0  0  0  0  0  0  0  0  0
   -5.4321    8.1893   -3.6709 C   0  0  0  0  0  0  0  0  0  0  0  0
    0.8704   -0.1747    0.9677 C   0  0  0  0  0  0  0  0  0  0  0  0
  1 13  1  0  0  0  0
  1 17  1  0  0  0  0
  2 15  2  0  0  0  0
  3  4  1  0  0  0  0
  3  7  2  0  0  0  0
  3  9  1  0  0  0  0
  4  8  1  0  0  0  0
  5  6  2  0  0  0  0
  5  7  1  0  0  0  0
  5 11  1  0  0  0  0
  6 10  1  0  0  0  0
  6 12  1  0  0  0  0
  8 15  1  0  0  0  0
  9 10  2  0  0  0  0
 11 14  2  0  0  0  0
 12 13  2  0  0  0  0
 13 14  1  0  0  0  0
 15 16  1  0  0  0  0
M  END
