9677
 OpenBabel10141417503D

 31 34  0  0  1  0  0  0  0  0999 V2000
   -5.3784    9.7427   -5.9478 O   0  0  0  0  0  0  0  0  0  0  0  0
   -5.9471    1.9953    0.4692 O   0  0  0  0  0  0  0  0  0  0  0  0
   -3.2033    9.5565   -6.6734 O   0  0  0  0  0  0  0  0  0  0  0  0
   -6.4280    8.7813   -3.4621 C   0  0  2  0  0  0  0  0  0  0  0  0
   -4.9205    9.0855   -3.6046 C   0  0  2  0  0  0  0  0  0  0  0  0
   -6.7995    7.5941   -2.5557 C   0  0  1  0  0  0  0  0  0  0  0  0
   -6.0236    6.3384   -3.0534 C   0  0  2  0  0  0  0  0  0  0  0  0
   -4.2102    7.8075   -4.0703 C   0  0  0  0  0  0  0  0  0  0  0  0
   -4.9847   10.2430   -4.6473 C   0  0  2  0  0  0  0  0  0  0  0  0
   -7.0745   10.1556   -3.2994 C   0  0  0  0  0  0  0  0  0  0  0  0
   -4.5071    6.5870   -3.2036 C   0  0  0  0  0  0  0  0  0  0  0  0
   -6.3660    5.1144   -2.1839 C   0  0  2  0  0  0  0  0  0  0  0  0
   -6.1579   11.1048   -4.1151 C   0  0  0  0  0  0  0  0  0  0  0  0
   -6.7278    7.8022   -1.0308 C   0  0  0  0  0  0  0  0  0  0  0  0
   -4.2326    9.6238   -2.3287 C   0  0  0  0  0  0  0  0  0  0  0  0
   -5.8888    6.7734   -0.2597 C   0  0  0  0  0  0  0  0  0  0  0  0
   -6.0437    5.3453   -0.7268 C   0  0  0  0  0  0  0  0  0  0  0  0
   -5.6900    3.8274   -2.6858 C   0  0  0  0  0  0  0  0  0  0  0  0
   -6.0961    2.6289   -1.8403 C   0  0  0  0  0  0  0  0  0  0  0  0
   -5.8590    4.3115    0.1124 C   0  0  0  0  0  0  0  0  0  0  0  0
   -5.9548    2.9044   -0.3585 C   0  0  0  0  0  0  0  0  0  0  0  0
   -4.3875    9.3160   -6.7869 C   0  0  0  0  0  0  0  0  0  0  0  0
   -4.9789    8.3721   -7.8179 C   0  0  0  0  0  0  0  0  0  0  0  0
   -5.1962    9.0183   -9.1838 C   0  0  0  0  0  0  0  0  0  0  0  0
   -6.2130   10.1686   -9.1667 C   0  0  0  0  0  0  0  0  0  0  0  0
   -6.5123   10.8027  -10.5402 C   0  0  0  0  0  0  0  0  0  0  0  0
   -5.2782   11.4037  -11.2164 C   0  0  0  0  0  0  0  0  0  0  0  0
   -5.5907   12.0887  -12.5564 C   0  0  0  0  0  0  0  0  0  0  0  0
   -4.3045   12.6743  -13.1470 C   0  0  0  0  0  0  0  0  0  0  0  0
   -4.5075   13.3866  -14.4835 C   0  0  0  0  0  0  0  0  0  0  0  0
   -3.1817   13.9433  -14.9924 C   0  0  0  0  0  0  0  0  0  0  0  0
  1 22  1  0  0  0  0
  2 21  2  0  0  0  0
  3 22  2  0  0  0  0
  4  5  1  0  0  0  0
  4  6  1  0  0  0  0
  4 10  1  6  0  0  0
  5  8  1  0  0  0  0
  5  9  1  0  0  0  0
  5 15  1  6  0  0  0
  6  7  1  0  0  0  0
  6 14  1  1  0  0  0
  7 11  1  6  0  0  0
  7 12  1  0  0  0  0
  8 11  1  0  0  0  0
  9 13  1  0  0  0  0
  9  1  1  6  0  0  0
 10 13  1  0  0  0  0
 12 17  1  1  0  0  0
 12 18  1  0  0  0  0
 14 16  1  0  0  0  0
 16 17  1  0  0  0  0
 17 20  2  0  0  0  0
 18 19  1  0  0  0  0
 19 21  1  0  0  0  0
 20 21  1  0  0  0  0
 22 23  1  0  0  0  0
 23 24  1  0  0  0  0
 24 25  1  0  0  0  0
 25 26  1  0  0  0  0
 26 27  1  0  0  0  0
 27 28  1  0  0  0  0
 28 29  1  0  0  0  0
 29 30  1  0  0  0  0
 30 31  1  0  0  0  0
M  END
