Structure #1
 OpenBabel10141419233D

 16 18  0  0  0  0  0  0  0  0999 V2000
    2.5365    0.8657   -0.0059 C   0  0  0  0  0  0  0  0  0  0  0  0
    2.5463   -0.5213    0.0592 C   0  0  0  0  0  0  0  0  0  0  0  0
   -2.3289    0.8923   -0.0717 C   0  0  0  0  0  0  0  0  0  0  0  0
    1.3215    1.5448   -0.0563 C   0  0  0  0  0  0  0  0  0  0  0  0
   -1.1075    1.5574   -0.0955 C   0  0  0  0  0  0  0  0  0  0  0  0
   -2.3567   -0.4930    0.0293 C   0  0  0  0  0  0  0  0  0  0  0  0
    1.3408   -1.2278    0.0838 C   0  0  0  0  0  0  0  0  0  0  0  0
   -0.9659   -4.8928   -2.8132 C   0  0  0  0  0  0  0  0  0  0  0  0
   -1.3080   -3.5534   -3.4710 C   0  0  0  0  0  0  0  0  0  0  0  0
   -1.2852   -2.7469    0.1600 C   0  0  0  0  0  0  0  0  0  0  0  0
    0.1014    0.8503   -0.0322 C   0  0  0  0  0  0  0  0  0  0  0  0
   -1.1633   -1.2365    0.0992 C   0  0  0  0  0  0  0  0  0  0  0  0
    0.0912   -0.5676    0.0525 C   0  0  0  0  0  0  0  0  0  0  0  0
   -1.2605   -3.4057   -1.2022 C   0  0  0  0  0  0  0  0  0  0  0  0
   -0.7768   -4.6133   -1.3592 N   0  0  0  0  0  0  0  0  0  0  0  0
   -1.7614   -2.7970   -2.3305 N   0  0  0  0  0  0  0  0  0  0  0  0
  1  2  2  0  0  0  0
  1  4  1  0  0  0  0
  2  7  1  0  0  0  0
  3  5  2  0  0  0  0
  3  6  1  0  0  0  0
  4 11  2  0  0  0  0
  5 11  1  0  0  0  0
  6 12  2  0  0  0  0
  7 13  2  0  0  0  0
  8  9  1  0  0  0  0
  8 15  1  0  0  0  0
  9 16  1  0  0  0  0
 10 12  1  0  0  0  0
 10 14  1  0  0  0  0
 11 13  1  0  0  0  0
 12 13  1  0  0  0  0
 14 15  2  0  0  0  0
 14 16  1  0  0  0  0
M  END
