
 OpenBabel10141417523D

 17 18  0  0  0  0  0  0  0  0999 V2000
    0.9837   -1.7023   -0.0866 C   0  0  0  0  0  0  0  0  0  0  0  0
    2.2449   -1.1152   -0.0878 C   0  0  0  0  0  0  0  0  0  0  0  0
    2.3828    0.2720   -0.0791 C   0  0  0  0  0  0  0  0  0  0  0  0
    1.2365    1.0743   -0.0932 C   0  0  0  0  0  0  0  0  0  0  0  0
   -0.0480    0.4957   -0.0921 C   0  0  0  0  0  0  0  0  0  0  0  0
   -0.1664   -0.9117   -0.0807 C   0  0  0  0  0  0  0  0  0  0  0  0
   -1.4310   -1.5110   -0.0537 C   0  0  0  0  0  0  0  0  0  0  0  0
   -1.2198    1.2693   -0.0944 C   0  0  0  0  0  0  0  0  0  0  0  0
   -2.4791    0.6609   -0.0690 C   0  0  0  0  0  0  0  0  0  0  0  0
   -2.5972   -0.7342   -0.0326 C   0  0  0  0  0  0  0  0  0  0  0  0
   -3.9525   -1.4152    0.0791 C   0  0  1  0  0  0  0  0  0  0  0  0
   -4.7365   -1.0064    1.3182 C   0  0  0  0  0  0  0  0  0  0  0  0
   -5.9647   -0.9772    1.3658 O   0  0  0  0  0  0  0  0  0  0  0  0
   -3.9994   -0.7471    2.4219 O   0  0  0  0  0  0  0  0  0  0  0  0
   -4.7686   -1.2072   -1.1948 C   0  0  0  0  0  0  0  0  0  0  0  0
    3.5849    0.9309   -0.0521 O   0  0  0  0  0  0  0  0  0  0  0  0
    4.7369    0.0899   -0.0087 C   0  0  0  0  0  0  0  0  0  0  0  0
  1  2  2  0  0  0  0
  1  6  1  0  0  0  0
  2  3  1  0  0  0  0
  3  4  2  0  0  0  0
  3 16  1  0  0  0  0
  4  5  1  0  0  0  0
  5  6  2  0  0  0  0
  5  8  1  0  0  0  0
  7  6  1  0  0  0  0
  7 10  2  0  0  0  0
  8  9  2  0  0  0  0
  9 10  1  0  0  0  0
 11 10  1  6  0  0  0
 11 12  1  0  0  0  0
 11 15  1  0  0  0  0
 12 13  2  0  0  0  0
 12 14  1  0  0  0  0
 16 17  1  0  0  0  0
M  END
