
 OpenBabel10141417483D

 23 24  0  0  1  0  0  0  0  0999 V2000
   -1.1351   -5.1161    2.5482 C   0  0  0  0  0  0  0  0  0  0  0  0
    0.2290   -5.3551    2.4002 C   0  0  0  0  0  0  0  0  0  0  0  0
    1.1288   -4.3075    2.5685 C   0  0  0  0  0  0  0  0  0  0  0  0
    0.6587   -3.0153    2.8401 C   0  0  0  0  0  0  0  0  0  0  0  0
   -0.7196   -2.7526    2.9719 C   0  0  0  0  0  0  0  0  0  0  0  0
   -1.6023   -3.8336    2.8645 C   0  0  0  0  0  0  0  0  0  0  0  0
   -1.2095   -1.3634    3.3521 C   0  0  0  0  0  0  0  0  0  0  0  0
   -2.1696   -0.5972    2.4123 C   0  0  2  0  0  0  0  0  0  0  0  0
   -3.6338   -1.0817    2.3887 C   0  0  0  0  0  0  0  0  0  0  0  0
   -4.1178   -1.2563    1.1282 O   0  0  0  0  0  0  0  0  0  0  0  0
   -4.3615   -1.2486    3.3438 O   0  0  0  0  0  0  0  0  0  0  0  0
   -1.6269   -0.4619    1.0579 N   0  0  0  0  0  0  0  0  0  0  0  0
   -0.8779    0.6257    0.6808 C   0  0  0  0  0  0  0  0  0  0  0  0
   -0.4099    0.6040   -0.7808 C   0  0  1  0  0  0  0  0  0  0  0  0
   -0.5622    1.5051    1.4740 O   0  0  0  0  0  0  0  0  0  0  0  0
   -0.1396    2.0426   -1.2653 C   0  0  0  0  0  0  0  0  0  0  0  0
    0.7633    2.1389   -2.4922 C   0  0  0  0  0  0  0  0  0  0  0  0
    2.0640    1.3384   -2.3197 C   0  0  3  0  0  0  0  0  0  0  0  0
    1.6460   -0.1311   -2.1521 C   0  0  0  0  0  0  0  0  0  0  0  0
    0.7938   -0.3506   -0.9026 C   0  0  0  0  0  0  0  0  0  0  0  0
    2.9735    1.8641   -1.1644 C   0  0  0  0  0  0  0  0  0  0  0  0
    4.2525    1.0315   -1.0124 C   0  0  0  0  0  0  0  0  0  0  0  0
    3.3596    3.3349   -1.3604 C   0  0  0  0  0  0  0  0  0  0  0  0
  1  2  2  0  0  0  0
  2  3  1  0  0  0  0
  3  4  2  0  0  0  0
  4  5  1  0  0  0  0
  5  6  2  0  0  0  0
  5  7  1  0  0  0  0
  6  1  1  0  0  0  0
  7  8  1  0  0  0  0
  8 12  1  6  0  0  0
  8  9  1  0  0  0  0
  9 10  1  0  0  0  0
  9 11  2  0  0  0  0
 12 13  1  0  0  0  0
 13 15  2  0  0  0  0
 14 16  1  0  0  0  0
 14 13  1  1  0  0  0
 16 17  1  0  0  0  0
 17 18  1  0  0  0  0
 18 19  1  0  0  0  0
 18 21  1  0  0  0  0
 19 20  1  0  0  0  0
 20 14  1  0  0  0  0
 21 22  1  0  0  0  0
 21 23  1  0  0  0  0
M  END
