716
 OpenBabel10141417483D

 27 29  0  0  0  0  0  0  0  0999 V2000
    2.3857   -0.2755   -0.5068 O   0  0  0  0  0  0  0  0  0  0  0  0
   -2.7749    3.2887    0.6960 O   0  0  0  0  0  0  0  0  0  0  0  0
    2.1863    3.7707   -0.1837 O   0  0  0  0  0  0  0  0  0  0  0  0
   -4.5013   -2.3121    0.5897 O   0  0  0  0  0  0  0  0  0  0  0  0
   -5.6377   -0.7315    1.6735 O   0  0  0  0  0  0  0  0  0  0  0  0
    4.8165   -1.4171   -0.4745 O   0  0  0  0  0  0  0  0  0  0  0  0
    5.8579    0.4448   -1.1328 O   0  0  0  0  0  0  0  0  0  0  0  0
   -2.4980   -0.6001   -0.2282 N   0  0  0  0  0  0  0  0  0  0  0  0
   -1.2604    0.1208   -0.1239 C   0  0  0  0  0  0  0  0  0  0  0  0
    0.0057   -0.5000   -0.3037 C   0  0  0  0  0  0  0  0  0  0  0  0
   -1.3190    1.4976    0.1720 C   0  0  0  0  0  0  0  0  0  0  0  0
    0.1507   -2.0122   -0.3729 C   0  0  0  0  0  0  0  0  0  0  0  0
    1.1557    0.3224   -0.3281 C   0  0  0  0  0  0  0  0  0  0  0  0
    1.0396    1.7080   -0.1687 C   0  0  0  0  0  0  0  0  0  0  0  0
   -0.1881    2.3007    0.1083 C   0  0  0  0  0  0  0  0  0  0  0  0
   -2.8077   -0.8193   -1.6819 C   0  0  0  0  0  0  0  0  0  0  0  0
   -3.5562   -0.1367    0.5831 C   0  0  0  0  0  0  0  0  0  0  0  0
    0.5069   -2.6814    0.9651 C   0  0  0  0  0  0  0  0  0  0  0  0
   -2.6079    2.0804    0.6045 C   0  0  0  0  0  0  0  0  0  0  0  0
   -3.6714    1.1359    0.9932 C   0  0  0  0  0  0  0  0  0  0  0  0
    2.2376    2.5519   -0.2650 C   0  0  0  0  0  0  0  0  0  0  0  0
   -3.6247    0.3194   -2.3071 C   0  0  0  0  0  0  0  0  0  0  0  0
   -0.5283   -2.4652    2.0603 C   0  0  0  0  0  0  0  0  0  0  0  0
    3.5133    0.5295   -0.5753 C   0  0  0  0  0  0  0  0  0  0  0  0
    3.5122    1.8642   -0.4745 C   0  0  0  0  0  0  0  0  0  0  0  0
   -4.6687   -1.0427    1.0065 C   0  0  0  0  0  0  0  0  0  0  0  0
    4.8388   -0.1049   -0.7719 C   0  0  0  0  0  0  0  0  0  0  0  0
  1 13  1  0  0  0  0
  1 24  1  0  0  0  0
  2 19  2  0  0  0  0
  3 21  2  0  0  0  0
  4 26  1  0  0  0  0
  5 26  2  0  0  0  0
  6 27  1  0  0  0  0
  7 27  2  0  0  0  0
  8  9  1  0  0  0  0
  8 16  1  0  0  0  0
  8 17  1  0  0  0  0
  9 10  2  0  0  0  0
  9 11  1  0  0  0  0
 10 12  1  0  0  0  0
 10 13  1  0  0  0  0
 11 15  2  0  0  0  0
 11 19  1  0  0  0  0
 12 18  1  0  0  0  0
 13 14  2  0  0  0  0
 14 15  1  0  0  0  0
 14 21  1  0  0  0  0
 16 22  1  0  0  0  0
 17 20  2  0  0  0  0
 17 26  1  0  0  0  0
 18 23  1  0  0  0  0
 19 20  1  0  0  0  0
 21 25  1  0  0  0  0
 24 25  2  0  0  0  0
 24 27  1  0  0  0  0
M  END
