1280
 OpenBabel10141417513D

 21 23  0  0  1  0  0  0  0  0999 V2000
   -0.9825   -0.4333    0.2112 O   0  0  0  0  0  0  0  0  0  0  0  0
    2.1062    1.4493    0.8989 O   0  0  0  0  0  0  0  0  0  0  0  0
   -0.0674    1.8206    2.8895 O   0  0  0  0  0  0  0  0  0  0  0  0
   -2.7772    1.8575    0.1690 O   0  0  0  0  0  0  0  0  0  0  0  0
    1.8998    2.3666   -5.3546 O   0  0  0  0  0  0  0  0  0  0  0  0
    0.4794    0.4698   -1.4122 N   0  0  0  0  0  0  0  0  0  0  0  0
   -0.1705    1.2698   -3.3901 N   0  0  0  0  0  0  0  0  0  0  0  0
    2.8863    0.7474   -1.6216 N   0  0  0  0  0  0  0  0  0  0  0  0
    3.4906    1.7915   -3.7085 N   0  0  0  0  0  0  0  0  0  0  0  0
    5.0941    1.2535   -2.1331 N   0  0  0  0  0  0  0  0  0  0  0  0
    0.9912    0.5907    1.0849 C   0  0  2  0  0  0  0  0  0  0  0  0
    0.4141   -0.1810   -0.1165 C   0  0  1  0  0  0  0  0  0  0  0  0
   -0.2159    1.3783    1.5480 C   0  0  1  0  0  0  0  0  0  0  0  0
   -1.3142    0.3385    1.3932 C   0  0  1  0  0  0  0  0  0  0  0  0
   -2.7044    0.9605    1.2735 C   0  0  0  0  0  0  0  0  0  0  0  0
    1.6234    0.8413   -2.0680 C   0  0  0  0  0  0  0  0  0  0  0  0
   -0.5595    0.6966   -2.2779 C   0  0  0  0  0  0  0  0  0  0  0  0
    1.1963    1.3600   -3.2843 C   0  0  0  0  0  0  0  0  0  0  0  0
    2.2000    1.8472   -4.1136 C   0  0  0  0  0  0  0  0  0  0  0  0
    3.7675    1.2395   -2.5112 C   0  0  0  0  0  0  0  0  0  0  0  0
    2.8936    3.2662   -5.8248 C   0  0  0  0  0  0  0  0  0  0  0  0
  1 12  1  0  0  0  0
  1 14  1  0  0  0  0
  4 15  1  0  0  0  0
  5 19  1  0  0  0  0
  5 21  1  0  0  0  0
  6 16  1  0  0  0  0
  6 17  1  0  0  0  0
  7 17  2  0  0  0  0
  7 18  1  0  0  0  0
  8 16  1  0  0  0  0
  8 20  2  0  0  0  0
  9 19  2  0  0  0  0
  9 20  1  0  0  0  0
 10 20  1  0  0  0  0
 11  2  1  6  0  0  0
 11 12  1  0  0  0  0
 11 13  1  0  0  0  0
 12  6  1  6  0  0  0
 13 14  1  0  0  0  0
 13  3  1  1  0  0  0
 14 15  1  6  0  0  0
 16 18  2  0  0  0  0
 18 19  1  0  0  0  0
M  END
