220
 OpenBabel10141417513D

 40 43  0  0  1  0  0  0  0  0999 V2000
    1.7138    3.8892    1.4950 S   0  0  0  0  0  0  0  0  0  0  0  0
   -5.2436    0.4632    3.8064 O   0  0  0  0  0  0  0  0  0  0  0  0
   -1.1569    0.3275    0.8196 O   0  0  0  0  0  0  0  0  0  0  0  0
    3.1068   -0.6920    1.8394 O   0  0  0  0  0  0  0  0  0  0  0  0
    6.6286   -1.5933   -1.9417 O   0  0  0  0  0  0  0  0  0  0  0  0
   -3.0032    2.2019    2.1260 N   0  0  0  0  0  0  0  0  0  0  0  0
   -3.6248    1.1486    5.2752 N   0  0  0  0  0  0  0  0  0  0  0  0
    1.6558    0.7099    0.7645 N   0  0  0  0  0  0  0  0  0  0  0  0
   -5.2268    4.1677    1.5981 C   0  0  2  0  0  0  0  0  0  0  0  0
   -4.1982    3.7824    0.5363 C   0  0  1  0  0  0  0  0  0  0  0  0
   -5.3603    3.0449    2.6403 C   0  0  0  0  0  0  0  0  0  0  0  0
   -2.8917    3.3671    1.2169 C   0  0  0  0  0  0  0  0  0  0  0  0
   -6.5683    4.5480    0.9413 C   0  0  0  0  0  0  0  0  0  0  0  0
   -4.7224    2.7082   -0.4338 C   0  0  0  0  0  0  0  0  0  0  0  0
   -4.0058    2.5166    3.2154 C   0  0  1  0  0  0  0  0  0  0  0  0
   -7.0808    3.5159   -0.0645 C   0  0  0  0  0  0  0  0  0  0  0  0
   -6.0210    3.1552   -1.0996 C   0  0  0  0  0  0  0  0  0  0  0  0
   -1.6346    1.8470    2.6517 C   0  0  0  0  0  0  0  0  0  0  0  0
   -4.3581    1.2625    4.1032 C   0  0  0  0  0  0  0  0  0  0  0  0
   -0.6118    1.4635    1.5176 C   0  0  2  0  0  0  0  0  0  0  0  0
    0.8720    1.1717    1.9462 C   0  0  2  0  0  0  0  0  0  0  0  0
   -3.7985    0.1049    6.3187 C   0  0  0  0  0  0  0  0  0  0  0  0
    1.5818    2.4025    2.5977 C   0  0  0  0  0  0  0  0  0  0  0  0
   -2.7520    0.3652    7.4224 C   0  0  0  0  0  0  0  0  0  0  0  0
   -5.1925    0.1570    6.9715 C   0  0  0  0  0  0  0  0  0  0  0  0
   -3.5562   -1.3108    5.7671 C   0  0  0  0  0  0  0  0  0  0  0  0
    2.7320   -0.1728    0.8055 C   0  0  0  0  0  0  0  0  0  0  0  0
    3.4337   -0.4205   -0.5281 C   0  0  0  0  0  0  0  0  0  0  0  0
    2.6064    5.0493    2.5340 C   0  0  0  0  0  0  0  0  0  0  0  0
    4.7898   -0.8291   -0.5986 C   0  0  0  0  0  0  0  0  0  0  0  0
    2.7204   -0.2544   -1.7333 C   0  0  0  0  0  0  0  0  0  0  0  0
    4.0063    5.0705    2.5380 C   0  0  0  0  0  0  0  0  0  0  0  0
    1.9198    6.0185    3.2777 C   0  0  0  0  0  0  0  0  0  0  0  0
    5.3498   -1.1085   -1.8645 C   0  0  0  0  0  0  0  0  0  0  0  0
    5.6496   -0.9845    0.6277 C   0  0  0  0  0  0  0  0  0  0  0  0
    3.3267   -0.4580   -2.9770 C   0  0  0  0  0  0  0  0  0  0  0  0
    4.7056    6.0092    3.3091 C   0  0  0  0  0  0  0  0  0  0  0  0
    2.6199    6.9595    4.0467 C   0  0  0  0  0  0  0  0  0  0  0  0
    4.6401   -0.9017   -3.0444 C   0  0  0  0  0  0  0  0  0  0  0  0
    4.0130    6.9472    4.0716 C   0  0  0  0  0  0  0  0  0  0  0  0
  1 23  1  0  0  0  0
  1 29  1  0  0  0  0
  2 19  2  0  0  0  0
  4 27  2  0  0  0  0
  5 34  1  0  0  0  0
  6 12  1  0  0  0  0
  6 15  1  0  0  0  0
  6 18  1  0  0  0  0
  7 19  1  0  0  0  0
  7 22  1  0  0  0  0
  8 27  1  0  0  0  0
  9 10  1  0  0  0  0
  9 11  1  1  0  0  0
  9 13  1  0  0  0  0
 10 12  1  1  0  0  0
 10 14  1  0  0  0  0
 11 15  1  0  0  0  0
 13 16  1  0  0  0  0
 14 17  1  0  0  0  0
 15 19  1  6  0  0  0
 16 17  1  0  0  0  0
 20 18  1  6  0  0  0
 20  3  1  0  0  0  0
 21 23  1  6  0  0  0
 21 20  1  0  0  0  0
 21  8  1  0  0  0  0
 22 24  1  0  0  0  0
 22 25  1  0  0  0  0
 22 26  1  0  0  0  0
 27 28  1  0  0  0  0
 28 30  2  0  0  0  0
 28 31  1  0  0  0  0
 29 32  2  0  0  0  0
 29 33  1  0  0  0  0
 30 34  1  0  0  0  0
 30 35  1  0  0  0  0
 31 36  2  0  0  0  0
 32 37  1  0  0  0  0
 33 38  2  0  0  0  0
 34 39  2  0  0  0  0
 36 39  1  0  0  0  0
 37 40  2  0  0  0  0
 38 40  1  0  0  0  0
M  END
