994
 OpenBabel10141417483D

 42 45  0  0  1  0  0  0  0  0999 V2000
   -1.1110    5.7628   -3.3595 O   0  0  0  0  0  0  0  0  0  0  0  0
    1.5257    3.4380   -4.8218 O   0  0  0  0  0  0  0  0  0  0  0  0
   -2.3682    6.3152   -1.5290 O   0  0  0  0  0  0  0  0  0  0  0  0
   -0.4767    6.0041    1.1715 O   0  0  0  0  0  0  0  0  0  0  0  0
    1.2020    6.7756   -5.8251 O   0  0  0  0  0  0  0  0  0  0  0  0
    2.1209    4.6767   -6.7077 O   0  0  0  0  0  0  0  0  0  0  0  0
    0.1331    7.5921    2.9292 O   0  0  0  0  0  0  0  0  0  0  0  0
    1.1660    5.7763   -1.0462 O   0  0  0  0  0  0  0  0  0  0  0  0
    2.5150    1.8940   -8.7834 O   0  0  0  0  0  0  0  0  0  0  0  0
    4.7647    4.6169   -7.6838 O   0  0  0  0  0  0  0  0  0  0  0  0
   -1.6879    5.5659    5.2821 O   0  0  0  0  0  0  0  0  0  0  0  0
   -1.8213    9.1755   -1.5820 O   0  0  0  0  0  0  0  0  0  0  0  0
   -1.8536    9.1876    4.6192 O   0  0  0  0  0  0  0  0  0  0  0  0
   -1.9169    2.5087   -4.3224 N   0  0  0  0  0  0  0  0  0  0  0  0
   -1.3897    6.3036   -7.5166 N   0  0  0  0  0  0  0  0  0  0  0  0
    4.2640    2.7868   -5.6022 N   0  0  0  0  0  0  0  0  0  0  0  0
   -2.7603    7.7715    2.5516 N   0  0  0  0  0  0  0  0  0  0  0  0
    1.4777    4.7023  -10.4981 N   0  0  0  0  0  0  0  0  0  0  0  0
    1.1346    9.4925    6.0532 N   0  0  0  0  0  0  0  0  0  0  0  0
    0.0915    5.4353   -4.0812 C   0  0  1  0  0  0  0  0  0  0  0  0
    0.2179    3.8972   -4.3583 C   0  0  1  0  0  0  0  0  0  0  0  0
   -1.0034    3.3162   -5.1489 C   0  0  2  0  0  0  0  0  0  0  0  0
   -0.0722    6.2596   -5.3801 C   0  0  2  0  0  0  0  0  0  0  0  0
   -0.7897    5.4415   -6.4878 C   0  0  1  0  0  0  0  0  0  0  0  0
   -1.7749    4.3933   -5.9589 C   0  0  0  0  0  0  0  0  0  0  0  0
   -1.1256    5.7274   -1.9396 C   0  0  2  0  0  0  0  0  0  0  0  0
   -0.6907    6.9809    0.1147 C   0  0  1  0  0  0  0  0  0  0  0  0
   -0.0361    6.5257   -1.2137 C   0  0  1  0  0  0  0  0  0  0  0  0
   -2.1547    7.0894   -0.3299 C   0  0  1  0  0  0  0  0  0  0  0  0
    1.8492    3.3613   -6.2241 C   0  0  1  0  0  0  0  0  0  0  0  0
    3.1085    2.4541   -6.4687 C   0  0  1  0  0  0  0  0  0  0  0  0
    3.5012    2.5457   -7.9720 C   0  0  2  0  0  0  0  0  0  0  0  0
   -0.6126    6.4107    2.5757 C   0  0  1  0  0  0  0  0  0  0  0  0
    3.6724    4.0158   -8.4140 C   0  0  1  0  0  0  0  0  0  0  0  0
    2.3952    4.8039   -8.1219 C   0  0  1  0  0  0  0  0  0  0  0  0
   -2.0891    6.5593    3.0810 C   0  0  1  0  0  0  0  0  0  0  0  0
   -2.1098    6.7544    4.6145 C   0  0  2  0  0  0  0  0  0  0  0  0
   -2.5773    8.5499   -0.5484 C   0  0  0  0  0  0  0  0  0  0  0  0
   -1.2288    7.9562    5.0103 C   0  0  1  0  0  0  0  0  0  0  0  0
    0.1803    7.8200    4.3767 C   0  0  2  0  0  0  0  0  0  0  0  0
    1.2094    4.5113   -9.0796 C   0  0  0  0  0  0  0  0  0  0  0  0
    1.0369    9.0848    4.6466 C   0  0  0  0  0  0  0  0  0  0  0  0
  3 26  1  0  0  0  0
  3 29  1  0  0  0  0
  6 30  1  0  0  0  0
  6 35  1  0  0  0  0
  7 33  1  0  0  0  0
  7 40  1  0  0  0  0
 12 38  1  0  0  0  0
 18 41  1  0  0  0  0
 19 42  1  0  0  0  0
 20 21  1  0  0  0  0
 20 23  1  0  0  0  0
 20  1  1  1  0  0  0
 21 22  1  0  0  0  0
 21  2  1  6  0  0  0
 22 14  1  1  0  0  0
 22 25  1  0  0  0  0
 23  5  1  6  0  0  0
 23 24  1  0  0  0  0
 24 15  1  6  0  0  0
 24 25  1  0  0  0  0
 26  1  1  6  0  0  0
 26 28  1  0  0  0  0
 27 28  1  0  0  0  0
 27 29  1  0  0  0  0
 27  4  1  1  0  0  0
 28  8  1  1  0  0  0
 29 38  1  6  0  0  0
 30 31  1  0  0  0  0
 30  2  1  1  0  0  0
 31 32  1  0  0  0  0
 31 16  1  1  0  0  0
 32  9  1  6  0  0  0
 32 34  1  0  0  0  0
 33 36  1  0  0  0  0
 33  4  1  6  0  0  0
 34 35  1  0  0  0  0
 34 10  1  1  0  0  0
 35 41  1  6  0  0  0
 36 37  1  0  0  0  0
 36 17  1  6  0  0  0
 37 11  1  1  0  0  0
 37 39  1  0  0  0  0
 39 40  1  0  0  0  0
 39 13  1  6  0  0  0
 40 42  1  6  0  0  0
M  END
