238
 OpenBabel10141417493D

 20 23  0  0  0  0  0  0  0  0999 V2000
    5.2617    2.4831   -0.5539 O   0  0  0  0  0  0  0  0  0  0  0  0
    1.3579    2.0312    0.7174 N   0  0  0  0  0  0  0  0  0  0  0  0
    3.4772    3.7947   -0.3350 N   0  0  0  0  0  0  0  0  0  0  0  0
   -0.0332    3.9589    0.8765 N   0  0  0  0  0  0  0  0  0  0  0  0
    2.1904    0.5515    2.3943 N   0  0  0  0  0  0  0  0  0  0  0  0
    0.0868    1.2577    0.8275 C   0  0  0  0  0  0  0  0  0  0  0  0
   -0.0719   -0.0844    0.1545 C   0  0  0  0  0  0  0  0  0  0  0  0
   -0.8362    1.0975   -0.3564 C   0  0  0  0  0  0  0  0  0  0  0  0
    1.1948    3.4404    0.5813 C   0  0  0  0  0  0  0  0  0  0  0  0
    2.4594    1.4699    1.4145 C   0  0  0  0  0  0  0  0  0  0  0  0
    2.2156    4.2629    0.0684 C   0  0  0  0  0  0  0  0  0  0  0  0
    3.7754    1.7838    1.0998 C   0  0  0  0  0  0  0  0  0  0  0  0
    1.9390    5.6353   -0.1491 C   0  0  0  0  0  0  0  0  0  0  0  0
    4.1797    2.6760    0.0052 C   0  0  0  0  0  0  0  0  0  0  0  0
    4.8163    1.1538    1.8094 C   0  0  0  0  0  0  0  0  0  0  0  0
    0.6753    6.1355    0.1713 C   0  0  0  0  0  0  0  0  0  0  0  0
   -0.2645    5.2686    0.6799 C   0  0  0  0  0  0  0  0  0  0  0  0
    3.2067   -0.0279    3.0668 C   0  0  0  0  0  0  0  0  0  0  0  0
    2.9581    6.5894   -0.7149 C   0  0  0  0  0  0  0  0  0  0  0  0
    4.5317    0.2409    2.8140 C   0  0  0  0  0  0  0  0  0  0  0  0
  1 14  2  0  0  0  0
  2  6  1  0  0  0  0
  2  9  1  0  0  0  0
  2 10  1  0  0  0  0
  3 11  1  0  0  0  0
  3 14  1  0  0  0  0
  4  9  2  0  0  0  0
  4 17  1  0  0  0  0
  5 10  1  0  0  0  0
  5 18  2  0  0  0  0
  6  7  1  0  0  0  0
  6  8  1  0  0  0  0
  7  8  1  0  0  0  0
  9 11  1  0  0  0  0
 10 12  2  0  0  0  0
 11 13  2  0  0  0  0
 12 14  1  0  0  0  0
 12 15  1  0  0  0  0
 13 16  1  0  0  0  0
 13 19  1  0  0  0  0
 15 20  2  0  0  0  0
 16 17  2  0  0  0  0
 18 20  1  0  0  0  0
M  END
