622
 OpenBabel10141417493D

 35 37  0  0  1  0  0  0  0  0999 V2000
   -3.6368    0.5507   -4.5393 O   0  0  0  0  0  0  0  0  0  0  0  0
   -5.8349    1.0346   -0.0807 O   0  0  0  0  0  0  0  0  0  0  0  0
   -3.0360   -1.6691   -4.4393 O   0  0  0  0  0  0  0  0  0  0  0  0
   -7.3104   -0.4828    0.7827 O   0  0  0  0  0  0  0  0  0  0  0  0
  -10.3631    1.4541   -0.9407 O   0  5  0  0  0  0  0  0  0  0  0  0
  -10.5306    3.5800   -1.4492 O   0  0  0  0  0  0  0  0  0  0  0  0
   -6.7711   -2.5742   -2.9590 N   0  0  0  0  0  0  0  0  0  0  0  0
   -0.1882    0.4501   -6.3389 N   0  0  0  0  0  0  0  0  0  0  0  0
   -9.9778    2.4716   -1.5317 N   0  3  0  0  0  0  0  0  0  0  0  0
   -5.7201   -0.0328   -2.5512 C   0  0  3  0  0  0  0  0  0  0  0  0
   -5.1589   -0.9836   -3.6130 C   0  0  0  0  0  0  0  0  0  0  0  0
   -6.3961   -0.8149   -1.4154 C   0  0  0  0  0  0  0  0  0  0  0  0
   -6.7232    1.1098   -2.9761 C   0  0  0  0  0  0  0  0  0  0  0  0
   -5.6862   -2.2329   -3.7443 C   0  0  0  0  0  0  0  0  0  0  0  0
   -7.0380   -1.9539   -1.7428 C   0  0  0  0  0  0  0  0  0  0  0  0
   -3.8564   -0.7769   -4.2512 C   0  0  0  0  0  0  0  0  0  0  0  0
   -8.0679    1.1582   -2.4845 C   0  0  0  0  0  0  0  0  0  0  0  0
   -6.1934    2.2961   -3.4938 C   0  0  0  0  0  0  0  0  0  0  0  0
   -5.1583   -3.3591   -4.6190 C   0  0  0  0  0  0  0  0  0  0  0  0
   -6.5499   -0.1006   -0.1304 C   0  0  0  0  0  0  0  0  0  0  0  0
   -8.1774   -2.5306   -0.9537 C   0  0  0  0  0  0  0  0  0  0  0  0
   -1.2654    0.2908   -5.3406 C   0  0  0  0  0  0  0  0  0  0  0  0
   -2.6718    0.8425   -5.5963 C   0  0  0  0  0  0  0  0  0  0  0  0
   -8.7487    2.3805   -2.3450 C   0  0  0  0  0  0  0  0  0  0  0  0
   -6.8912    3.5055   -3.3723 C   0  0  0  0  0  0  0  0  0  0  0  0
    0.2670    1.8202   -6.6518 C   0  0  0  0  0  0  0  0  0  0  0  0
   -8.1612    3.5564   -2.7991 C   0  0  0  0  0  0  0  0  0  0  0  0
   -0.6285    2.6853   -7.5353 C   0  0  0  0  0  0  0  0  0  0  0  0
    0.9417   -0.3385   -5.7856 C   0  0  0  0  0  0  0  0  0  0  0  0
   -0.8795    2.3133   -8.8670 C   0  0  0  0  0  0  0  0  0  0  0  0
   -1.1422    3.9222   -7.1027 C   0  0  0  0  0  0  0  0  0  0  0  0
   -6.0080    1.8693    1.0634 C   0  0  0  0  0  0  0  0  0  0  0  0
   -1.6897    3.0934   -9.7036 C   0  0  0  0  0  0  0  0  0  0  0  0
   -1.9796    4.6889   -7.9313 C   0  0  0  0  0  0  0  0  0  0  0  0
   -2.2728    4.2619   -9.2239 C   0  0  0  0  0  0  0  0  0  0  0  0
  1 16  1  0  0  0  0
  1 23  1  0  0  0  0
  2 20  1  0  0  0  0
  2 32  1  0  0  0  0
  3 16  2  0  0  0  0
  4 20  2  0  0  0  0
  5  9  1  0  0  0  0
  6  9  2  0  0  0  0
  7 14  1  0  0  0  0
  7 15  1  0  0  0  0
  8 22  1  0  0  0  0
  8 26  1  0  0  0  0
  8 29  1  0  0  0  0
  9 24  1  0  0  0  0
 10 11  1  0  0  0  0
 10 12  1  0  0  0  0
 10 13  1  0  0  0  0
 11 14  2  0  0  0  0
 11 16  1  0  0  0  0
 12 15  2  0  0  0  0
 12 20  1  0  0  0  0
 13 17  2  0  0  0  0
 13 18  1  0  0  0  0
 14 19  1  0  0  0  0
 15 21  1  0  0  0  0
 17 24  1  0  0  0  0
 18 25  2  0  0  0  0
 22 23  1  0  0  0  0
 24 27  2  0  0  0  0
 25 27  1  0  0  0  0
 26 28  1  0  0  0  0
 28 30  2  0  0  0  0
 28 31  1  0  0  0  0
 30 33  1  0  0  0  0
 31 34  2  0  0  0  0
 33 35  2  0  0  0  0
 34 35  1  0  0  0  0
M  CHG  2   5  -1   9   1
M  END
