184
 OpenBabel10141417503D

 12 13  0  0  1  0  0  0  0  0999 V2000
   -0.7833   -0.6928   -0.2801 N   0  0  0  0  0  0  0  0  0  0  0  0
    2.7439   -3.5488   -1.9089 N   0  0  0  0  0  0  0  0  0  0  0  0
    0.6290   -1.0324   -0.0163 C   0  0  3  0  0  0  0  0  0  0  0  0
    1.2991    0.3201    0.2833 C   0  0  0  0  0  0  0  0  0  0  0  0
    0.1638    1.3350    0.2972 C   0  0  0  0  0  0  0  0  0  0  0  0
   -1.0740    0.4912    0.5266 C   0  0  0  0  0  0  0  0  0  0  0  0
    1.2893   -1.7495   -1.1674 C   0  0  0  0  0  0  0  0  0  0  0  0
   -1.6947   -1.7929    0.0076 C   0  0  0  0  0  0  0  0  0  0  0  0
    1.1502   -1.3283   -2.4951 C   0  0  0  0  0  0  0  0  0  0  0  0
    2.0981   -2.8596   -0.9397 C   0  0  0  0  0  0  0  0  0  0  0  0
    1.7998   -2.0169   -3.5150 C   0  0  0  0  0  0  0  0  0  0  0  0
    2.5770   -3.1105   -3.1750 C   0  0  0  0  0  0  0  0  0  0  0  0
  1  3  1  0  0  0  0
  1  6  1  0  0  0  0
  1  8  1  0  0  0  0
  2 10  1  0  0  0  0
  2 12  2  0  0  0  0
  3  4  1  0  0  0  0
  3  7  1  0  0  0  0
  4  5  1  0  0  0  0
  5  6  1  0  0  0  0
  7  9  1  0  0  0  0
  7 10  2  0  0  0  0
  9 11  2  0  0  0  0
 11 12  1  0  0  0  0
M  END
