
 OpenBabel10141417533D

 20 21  0  0  0  0  0  0  0  0999 V2000
    0.5253    3.7652    0.2011 F   0  0  0  0  0  0  0  0  0  0  0  0
    1.0698    5.6577   -0.7169 F   0  0  0  0  0  0  0  0  0  0  0  0
    0.2997    5.6197    1.3156 F   0  0  0  0  0  0  0  0  0  0  0  0
    4.2219    3.1066    4.5284 O   0  0  0  0  0  0  0  0  0  0  0  0
    6.0034    4.2963    5.2384 O   0  0  0  0  0  0  0  0  0  0  0  0
    5.0365    2.2102    1.7955 N   0  0  0  0  0  0  0  0  0  0  0  0
    6.9346    0.9049    2.0759 N   0  0  0  0  0  0  0  0  0  0  0  0
    4.4860    3.4909    1.5605 C   0  0  0  0  0  0  0  0  0  0  0  0
    2.5352    4.8377    0.9681 C   0  0  0  0  0  0  0  0  0  0  0  0
    3.1519    3.5855    1.1388 C   0  0  0  0  0  0  0  0  0  0  0  0
    6.1395    1.8713    2.6009 C   0  0  0  0  0  0  0  0  0  0  0  0
    5.2198    4.6697    1.7314 C   0  0  0  0  0  0  0  0  0  0  0  0
    3.2646    5.9994    1.2569 C   0  0  0  0  0  0  0  0  0  0  0  0
    6.4084    2.4291    3.8547 C   0  0  0  0  0  0  0  0  0  0  0  0
    4.6027    5.9151    1.6277 C   0  0  0  0  0  0  0  0  0  0  0  0
    1.1233    4.9625    0.4543 C   0  0  0  0  0  0  0  0  0  0  0  0
    7.5965    2.0763    4.5090 C   0  0  0  0  0  0  0  0  0  0  0  0
    8.4347    1.1206    3.9539 C   0  0  0  0  0  0  0  0  0  0  0  0
    8.0491    0.5467    2.7590 C   0  0  0  0  0  0  0  0  0  0  0  0
    5.5410    3.3933    4.5699 C   0  0  0  0  0  0  0  0  0  0  0  0
  1 16  1  0  0  0  0
  2 16  1  0  0  0  0
  3 16  1  0  0  0  0
  4 20  1  0  0  0  0
  5 20  2  0  0  0  0
  6  8  1  0  0  0  0
  6 11  1  0  0  0  0
  7 11  1  0  0  0  0
  7 19  2  0  0  0  0
  8 10  1  0  0  0  0
  8 12  2  0  0  0  0
  9 10  2  0  0  0  0
  9 13  1  0  0  0  0
  9 16  1  0  0  0  0
 11 14  2  0  0  0  0
 12 15  1  0  0  0  0
 13 15  2  0  0  0  0
 14 17  1  0  0  0  0
 14 20  1  0  0  0  0
 17 18  2  0  0  0  0
 18 19  1  0  0  0  0
M  END
