665
 OpenBabel10141417483D

 22 23  0  0  0  0  0  0  0  0999 V2000
   -0.6984   -0.3591    3.1889 F   0  0  0  0  0  0  0  0  0  0  0  0
    0.0308    1.1391    1.8088 F   0  0  0  0  0  0  0  0  0  0  0  0
    0.2177    1.4458    3.9610 F   0  0  0  0  0  0  0  0  0  0  0  0
    0.8000   -4.2743    3.0048 O   0  0  0  0  0  0  0  0  0  0  0  0
    5.4068   -4.0699    3.0720 O   0  0  0  0  0  0  0  0  0  0  0  0
    2.2970    2.5790    1.9838 O   0  5  0  0  0  0  0  0  0  0  0  0
    3.4295    2.6115    3.8727 O   0  0  0  0  0  0  0  0  0  0  0  0
    3.0793   -3.6771    3.0233 N   0  0  0  0  0  0  0  0  0  0  0  0
    3.9166   -5.7600    3.0400 N   0  0  0  0  0  0  0  0  0  0  0  0
    2.8540    2.0351    2.9425 N   0  3  0  0  0  0  0  0  0  0  0  0
    2.5031   -5.9897    3.0261 C   0  0  0  0  0  0  0  0  0  0  0  0
    1.9968   -4.5409    3.0174 C   0  0  0  0  0  0  0  0  0  0  0  0
    2.0464   -6.7077    4.2892 C   0  0  0  0  0  0  0  0  0  0  0  0
    2.0681   -6.7077    1.7552 C   0  0  0  0  0  0  0  0  0  0  0  0
    4.2411   -4.4220    3.0462 C   0  0  0  0  0  0  0  0  0  0  0  0
    3.0091   -2.2460    3.0048 C   0  0  0  0  0  0  0  0  0  0  0  0
    1.7750   -1.5628    2.9894 C   0  0  0  0  0  0  0  0  0  0  0  0
    4.1696   -1.4519    2.9997 C   0  0  0  0  0  0  0  0  0  0  0  0
    1.6772   -0.1522    2.9676 C   0  0  0  0  0  0  0  0  0  0  0  0
    2.8659    0.5813    2.9617 C   0  0  0  0  0  0  0  0  0  0  0  0
    4.1083   -0.0532    2.9809 C   0  0  0  0  0  0  0  0  0  0  0  0
    0.3257    0.5144    2.9766 C   0  0  0  0  0  0  0  0  0  0  0  0
  1 22  1  0  0  0  0
  2 22  1  0  0  0  0
  3 22  1  0  0  0  0
  4 12  2  0  0  0  0
  5 15  2  0  0  0  0
  6 10  1  0  0  0  0
  7 10  2  0  0  0  0
  8 12  1  0  0  0  0
  8 15  1  0  0  0  0
  8 16  1  0  0  0  0
  9 11  1  0  0  0  0
  9 15  1  0  0  0  0
 10 20  1  0  0  0  0
 11 12  1  0  0  0  0
 11 13  1  0  0  0  0
 11 14  1  0  0  0  0
 16 17  2  0  0  0  0
 16 18  1  0  0  0  0
 17 19  1  0  0  0  0
 18 21  2  0  0  0  0
 19 20  2  0  0  0  0
 19 22  1  0  0  0  0
 20 21  1  0  0  0  0
M  CHG  2   6  -1  10   1
M  END
