
 OpenBabel10141419233D

 28 29  0  0  0  0  0  0  0  0999 V2000
    1.0189   -0.9378    0.2097 C   0  0  0  0  0  0  0  0  0  0  0  0
    2.4464   -0.4498    0.1759 C   0  0  0  0  0  0  0  0  0  0  0  0
    2.8498    0.8487    0.2304 C   0  0  0  0  0  0  0  0  0  0  0  0
    4.3623    1.1797    0.2714 C   0  0  3  0  0  0  0  0  0  0  0  0
    5.2204    0.0425   -0.2650 C   0  0  0  0  0  0  0  0  0  0  0  0
    4.7223   -1.2069   -0.2624 C   0  0  0  0  0  0  0  0  0  0  0  0
    3.4057   -1.4538    0.0892 N   0  0  0  0  0  0  0  0  0  0  0  0
    5.4845   -2.3507   -0.5578 C   0  0  0  0  0  0  0  0  0  0  0  0
    6.1086   -3.2872   -0.7997 N   0  0  0  0  0  0  0  0  0  0  0  0
    6.5612    0.3950   -0.8213 C   0  0  0  0  0  0  0  0  0  0  0  0
    7.1555    1.4248   -0.5780 O   0  0  0  0  0  0  0  0  0  0  0  0
    6.9557   -0.5443   -1.7146 O   0  0  0  0  0  0  0  0  0  0  0  0
    8.2518   -0.4158   -2.3002 C   0  0  0  0  0  0  0  0  0  0  0  0
    4.8051    1.5788    1.6975 C   0  0  0  0  0  0  0  0  0  0  0  0
    5.8431    2.5105    1.8784 C   0  0  0  0  0  0  0  0  0  0  0  0
    6.2960    2.8315    3.1671 C   0  0  0  0  0  0  0  0  0  0  0  0
    5.6981    2.2624    4.2962 C   0  0  0  0  0  0  0  0  0  0  0  0
    4.6550    1.3559    4.1311 C   0  0  0  0  0  0  0  0  0  0  0  0
    4.2237    1.0083    2.8480 C   0  0  0  0  0  0  0  0  0  0  0  0
    7.4203    3.7611    3.3354 N   0  3  0  0  0  0  0  0  0  0  0  0
    7.9356    4.2403    2.3161 O   0  0  0  0  0  0  0  0  0  0  0  0
    7.7880    4.0146    4.4921 O   0  5  0  0  0  0  0  0  0  0  0  0
    1.9090    2.0129    0.2515 C   0  0  0  0  0  0  0  0  0  0  0  0
    0.6871    1.9497    0.2124 O   0  0  0  0  0  0  0  0  0  0  0  0
    2.6396    3.1490    0.2988 O   0  0  0  0  0  0  0  0  0  0  0  0
    1.9768    4.4260    0.2553 C   0  0  0  0  0  0  0  0  0  0  0  0
    1.4334    4.7741    1.6344 C   0  0  0  0  0  0  0  0  0  0  0  0
    3.0428    5.4331   -0.1678 C   0  0  0  0  0  0  0  0  0  0  0  0
  1  2  1  0  0  0  0
  2  3  2  0  0  0  0
  2  7  1  0  0  0  0
  3  4  1  0  0  0  0
  3 23  1  0  0  0  0
  4  5  1  0  0  0  0
  4 14  1  0  0  0  0
  5  6  2  0  0  0  0
  5 10  1  0  0  0  0
  6  7  1  0  0  0  0
  6  8  1  0  0  0  0
  8  9  3  0  0  0  0
 10 11  2  0  0  0  0
 10 12  1  0  0  0  0
 12 13  1  0  0  0  0
 14 15  2  0  0  0  0
 14 19  1  0  0  0  0
 15 16  1  0  0  0  0
 16 17  2  0  0  0  0
 16 20  1  0  0  0  0
 17 18  1  0  0  0  0
 18 19  2  0  0  0  0
 20 21  2  0  0  0  0
 20 22  1  0  0  0  0
 23 24  2  0  0  0  0
 23 25  1  0  0  0  0
 25 26  1  0  0  0  0
 26 27  1  0  0  0  0
 26 28  1  0  0  0  0
M  CHG  2  20   1  22  -1
M  END
