393
 OpenBabel10141417523D

 30 31  0  0  1  0  0  0  0  0999 V2000
    0.7313   -1.2644    1.1024 O   0  0  0  0  0  0  0  0  0  0  0  0
   -3.5270   -2.3812   -0.7221 O   0  0  0  0  0  0  0  0  0  0  0  0
    0.8814    0.6238    2.3949 O   0  0  0  0  0  0  0  0  0  0  0  0
   -5.3335   -1.0896   -0.1637 O   0  0  0  0  0  0  0  0  0  0  0  0
   -4.7247   -1.8314   -4.1684 O   0  0  0  0  0  0  0  0  0  0  0  0
   -2.9315   -5.5475    4.6375 O   0  5  0  0  0  0  0  0  0  0  0  0
   -0.7865   -6.0318    4.7857 O   0  0  0  0  0  0  0  0  0  0  0  0
   -3.2109   -0.3228    3.4699 N   0  0  0  0  0  0  0  0  0  0  0  0
   -1.7711   -5.5545    4.2059 N   0  3  0  0  0  0  0  0  0  0  0  0
   -1.9522   -1.4931    1.2683 C   0  0  3  0  0  0  0  0  0  0  0  0
   -1.1910   -0.6019    2.2556 C   0  0  0  0  0  0  0  0  0  0  0  0
   -3.4650   -1.2715    1.3233 C   0  0  0  0  0  0  0  0  0  0  0  0
   -1.6195   -2.9808    1.4946 C   0  0  0  0  0  0  0  0  0  0  0  0
   -1.8490   -0.0853    3.3251 C   0  0  0  0  0  0  0  0  0  0  0  0
   -4.0317   -0.7309    2.4283 C   0  0  0  0  0  0  0  0  0  0  0  0
    0.2403   -0.3277    1.9524 C   0  0  0  0  0  0  0  0  0  0  0  0
   -1.8802   -3.6013    2.7281 C   0  0  0  0  0  0  0  0  0  0  0  0
   -4.2431   -1.5703    0.0976 C   0  0  0  0  0  0  0  0  0  0  0  0
   -1.0437   -3.7507    0.4648 C   0  0  0  0  0  0  0  0  0  0  0  0
   -1.2281    0.7432    4.4195 C   0  0  0  0  0  0  0  0  0  0  0  0
   -5.5087   -0.5087    2.6456 C   0  0  0  0  0  0  0  0  0  0  0  0
   -1.5414   -4.9444    2.9098 C   0  0  0  0  0  0  0  0  0  0  0  0
   -0.7286   -5.1005    0.6584 C   0  0  0  0  0  0  0  0  0  0  0  0
    2.1221   -1.1947    0.7407 C   0  0  0  0  0  0  0  0  0  0  0  0
   -0.9691   -5.7056    1.8899 C   0  0  0  0  0  0  0  0  0  0  0  0
   -4.1213   -2.7029   -1.9883 C   0  0  0  0  0  0  0  0  0  0  0  0
    2.9713   -1.8243    1.8392 C   0  0  0  0  0  0  0  0  0  0  0  0
    2.2980   -1.9720   -0.5613 C   0  0  0  0  0  0  0  0  0  0  0  0
   -4.1946   -1.4755   -2.8950 C   0  0  0  0  0  0  0  0  0  0  0  0
   -4.8718   -0.6870   -5.0028 C   0  0  0  0  0  0  0  0  0  0  0  0
  1 16  1  0  0  0  0
  1 24  1  0  0  0  0
  2 18  1  0  0  0  0
  2 26  1  0  0  0  0
  3 16  2  0  0  0  0
  4 18  2  0  0  0  0
  5 29  1  0  0  0  0
  5 30  1  0  0  0  0
  6  9  1  0  0  0  0
  7  9  2  0  0  0  0
  8 14  1  0  0  0  0
  8 15  1  0  0  0  0
  9 22  1  0  0  0  0
 10 11  1  0  0  0  0
 10 12  1  0  0  0  0
 10 13  1  0  0  0  0
 11 14  2  0  0  0  0
 11 16  1  0  0  0  0
 12 15  2  0  0  0  0
 12 18  1  0  0  0  0
 13 17  2  0  0  0  0
 13 19  1  0  0  0  0
 14 20  1  0  0  0  0
 15 21  1  0  0  0  0
 17 22  1  0  0  0  0
 19 23  2  0  0  0  0
 22 25  2  0  0  0  0
 23 25  1  0  0  0  0
 24 27  1  0  0  0  0
 24 28  1  0  0  0  0
 26 29  1  0  0  0  0
M  CHG  2   6  -1   9   1
M  END
