401
 OpenBabel10141417493D

 28 29  0  0  1  0  0  0  0  0999 V2000
    0.6598   -0.2332    2.3707 O   0  0  0  0  0  0  0  0  0  0  0  0
   -3.8877    1.1096   -1.8891 O   0  0  0  0  0  0  0  0  0  0  0  0
    0.4703    1.4733    0.8531 O   0  0  0  0  0  0  0  0  0  0  0  0
   -5.5510    1.8674   -0.5131 O   0  0  0  0  0  0  0  0  0  0  0  0
   -0.1288    1.1274   -2.2101 O   0  5  0  0  0  0  0  0  0  0  0  0
   -1.5163    0.7108   -3.8641 O   0  0  0  0  0  0  0  0  0  0  0  0
   -3.4896   -0.2252    2.5980 N   0  0  0  0  0  0  0  0  0  0  0  0
   -1.0029    0.4548   -2.7620 N   0  3  0  0  0  0  0  0  0  0  0  0
   -2.1926    0.3648    0.1347 C   0  0  3  0  0  0  0  0  0  0  0  0
   -1.4505    0.2133    1.4842 C   0  0  0  0  0  0  0  0  0  0  0  0
   -3.7097    0.5925    0.3743 C   0  0  0  0  0  0  0  0  0  0  0  0
   -1.9514   -0.8477   -0.8115 C   0  0  0  0  0  0  0  0  0  0  0  0
   -2.1136   -0.0781    2.6290 C   0  0  0  0  0  0  0  0  0  0  0  0
   -4.2754    0.2773    1.5702 C   0  0  0  0  0  0  0  0  0  0  0  0
   -0.0092    0.5816    1.5077 C   0  0  0  0  0  0  0  0  0  0  0  0
   -1.4042   -0.7906   -2.1194 C   0  0  0  0  0  0  0  0  0  0  0  0
   -2.3802   -2.1264   -0.3876 C   0  0  0  0  0  0  0  0  0  0  0  0
   -1.4969   -0.1680    4.0109 C   0  0  0  0  0  0  0  0  0  0  0  0
   -4.5032    1.2576   -0.6937 C   0  0  0  0  0  0  0  0  0  0  0  0
   -5.7345    0.4455    1.9285 C   0  0  0  0  0  0  0  0  0  0  0  0
    2.7872   -0.8766    1.4305 C   0  0  0  0  0  0  0  0  0  0  0  0
    2.0728   -0.0347    2.4902 C   0  0  0  0  0  0  0  0  0  0  0  0
   -1.2536   -1.9421   -2.9252 C   0  0  0  0  0  0  0  0  0  0  0  0
   -2.2546   -3.2661   -1.1970 C   0  0  0  0  0  0  0  0  0  0  0  0
   -1.6806   -3.1791   -2.4595 C   0  0  0  0  0  0  0  0  0  0  0  0
    4.2964   -0.6981    1.5337 C   0  0  0  0  0  0  0  0  0  0  0  0
    2.4035   -2.3575    1.5318 C   0  0  0  0  0  0  0  0  0  0  0  0
   -4.5406    1.7067   -3.0144 C   0  0  0  0  0  0  0  0  0  0  0  0
  1 15  1  0  0  0  0
  1 22  1  0  0  0  0
  2 19  1  0  0  0  0
  2 28  1  0  0  0  0
  3 15  2  0  0  0  0
  4 19  2  0  0  0  0
  5  8  1  0  0  0  0
  6  8  2  0  0  0  0
  7 13  1  0  0  0  0
  7 14  1  0  0  0  0
  8 16  1  0  0  0  0
  9 10  1  0  0  0  0
  9 11  1  0  0  0  0
  9 12  1  0  0  0  0
 10 13  2  0  0  0  0
 10 15  1  0  0  0  0
 11 14  2  0  0  0  0
 11 19  1  0  0  0  0
 12 16  1  0  0  0  0
 12 17  2  0  0  0  0
 13 18  1  0  0  0  0
 14 20  1  0  0  0  0
 16 23  2  0  0  0  0
 17 24  1  0  0  0  0
 21 22  1  0  0  0  0
 21 26  1  0  0  0  0
 21 27  1  0  0  0  0
 23 25  1  0  0  0  0
 24 25  2  0  0  0  0
M  CHG  2   5  -1   8   1
M  END
