1595
 OpenBabel10141417483D

 21 23  0  0  0  0  0  0  0  0999 V2000
    1.0578   -0.1522    0.3563 O   0  0  0  0  0  0  0  0  0  0  0  0
    9.3202    1.0844    0.1245 O   0  5  0  0  0  0  0  0  0  0  0  0
    8.8378    3.2184   -0.0463 O   0  0  0  0  0  0  0  0  0  0  0  0
    2.9891    0.9416    0.6886 N   0  0  0  0  0  0  0  0  0  0  0  0
    3.9424   -1.9371    0.6189 N   0  0  0  0  0  0  0  0  0  0  0  0
    8.5222    2.0311    0.1117 N   0  3  0  0  0  0  0  0  0  0  0  0
    5.3292    0.1048    0.6862 C   0  0  0  0  0  0  0  0  0  0  0  0
    4.3758    1.1360    0.6228 C   0  0  0  0  0  0  0  0  0  0  0  0
    4.9578   -1.2898    1.0790 C   0  0  0  0  0  0  0  0  0  0  0  0
    5.8037   -2.0011    2.0938 C   0  0  0  0  0  0  0  0  0  0  0  0
    6.6907    0.3980    0.4893 C   0  0  0  0  0  0  0  0  0  0  0  0
    4.8073    2.4638    0.4834 C   0  0  0  0  0  0  0  0  0  0  0  0
    3.0598   -1.3056   -0.3527 C   0  0  0  0  0  0  0  0  0  0  0  0
    7.0983    1.7244    0.3013 C   0  0  0  0  0  0  0  0  0  0  0  0
    2.2874   -0.1666    0.2886 C   0  0  0  0  0  0  0  0  0  0  0  0
    6.1620    2.7626    0.3176 C   0  0  0  0  0  0  0  0  0  0  0  0
    6.0021   -3.3810    1.9622 C   0  0  0  0  0  0  0  0  0  0  0  0
    6.3630   -1.3219    3.1841 C   0  0  0  0  0  0  0  0  0  0  0  0
    6.7805   -4.0698    2.8937 C   0  0  0  0  0  0  0  0  0  0  0  0
    7.1446   -2.0146    4.1115 C   0  0  0  0  0  0  0  0  0  0  0  0
    7.3558   -3.3853    3.9635 C   0  0  0  0  0  0  0  0  0  0  0  0
  1 15  2  0  0  0  0
  2  6  1  0  0  0  0
  3  6  2  0  0  0  0
  4  8  1  0  0  0  0
  4 15  1  0  0  0  0
  5  9  2  0  0  0  0
  5 13  1  0  0  0  0
  6 14  1  0  0  0  0
  7  8  2  0  0  0  0
  7  9  1  0  0  0  0
  7 11  1  0  0  0  0
  8 12  1  0  0  0  0
  9 10  1  0  0  0  0
 10 17  2  0  0  0  0
 10 18  1  0  0  0  0
 11 14  2  0  0  0  0
 12 16  2  0  0  0  0
 13 15  1  0  0  0  0
 14 16  1  0  0  0  0
 17 19  1  0  0  0  0
 18 20  2  0  0  0  0
 19 21  2  0  0  0  0
 20 21  1  0  0  0  0
M  CHG  2   2  -1   6   1
M  END
