1422
 OpenBabel10141417483D

 14 15  0  0  0  0  0  0  0  0999 V2000
    1.0869    0.0745   -0.0396 O   0  0  0  0  0  0  0  0  0  0  0  0
    7.2467    0.3624   -1.0030 O   0  5  0  0  0  0  0  0  0  0  0  0
    7.1647   -0.7964    0.8673 O   0  0  0  0  0  0  0  0  0  0  0  0
    2.4426    2.3997   -0.0770 N   0  0  0  0  0  0  0  0  0  0  0  0
    6.6422   -0.1626   -0.0590 N   0  3  0  0  0  0  0  0  0  0  0  0
    4.5693    1.2268   -0.0637 C   0  0  0  0  0  0  0  0  0  0  0  0
    3.1607    1.2574   -0.0629 C   0  0  0  0  0  0  0  0  0  0  0  0
    5.1941   -0.0518   -0.0469 C   0  0  0  0  0  0  0  0  0  0  0  0
    2.4619    0.0498   -0.0410 C   0  0  0  0  0  0  0  0  0  0  0  0
    4.4688   -1.2520   -0.0161 C   0  0  0  0  0  0  0  0  0  0  0  0
    5.2225    2.4844   -0.0678 C   0  0  0  0  0  0  0  0  0  0  0  0
    3.0832   -1.1950   -0.0152 C   0  0  0  0  0  0  0  0  0  0  0  0
    4.4881    3.6654   -0.0821 C   0  0  0  0  0  0  0  0  0  0  0  0
    3.1124    3.5719   -0.0879 C   0  0  0  0  0  0  0  0  0  0  0  0
  1  9  1  0  0  0  0
  2  5  1  0  0  0  0
  3  5  2  0  0  0  0
  4  7  1  0  0  0  0
  4 14  2  0  0  0  0
  5  8  1  0  0  0  0
  6  7  1  0  0  0  0
  6  8  2  0  0  0  0
  6 11  1  0  0  0  0
  7  9  2  0  0  0  0
  8 10  1  0  0  0  0
  9 12  1  0  0  0  0
 10 12  2  0  0  0  0
 11 13  2  0  0  0  0
 13 14  1  0  0  0  0
M  CHG  2   2  -1   5   1
M  END
