698
 OpenBabel10141417483D

 17 18  0  0  0  0  0  0  0  0999 V2000
    0.2628   -4.8129   -1.1511 O   0  0  0  0  0  0  0  0  0  0  0  0
   -4.9723   -6.4266   -1.6056 O   0  0  0  0  0  0  0  0  0  0  0  0
   -1.5949   -5.7643    1.2994 O   0  0  0  0  0  0  0  0  0  0  0  0
    2.6081   -7.0542   -2.3963 O   0  5  0  0  0  0  0  0  0  0  0  0
    0.5217   -6.6538   -2.9890 O   0  0  0  0  0  0  0  0  0  0  0  0
   -2.4247   -4.3845   -0.4353 N   0  0  0  0  0  0  0  0  0  0  0  0
   -3.1801   -6.4747   -0.1852 N   0  0  0  0  0  0  0  0  0  0  0  0
   -1.9564   -3.1777    0.0077 N   0  0  0  0  0  0  0  0  0  0  0  0
    1.5234   -6.4664   -2.2863 N   0  3  0  0  0  0  0  0  0  0  0  0
   -3.6017   -4.4377   -1.2687 C   0  0  0  0  0  0  0  0  0  0  0  0
   -4.0116   -5.8833   -1.0806 C   0  0  0  0  0  0  0  0  0  0  0  0
   -2.3043   -5.5672    0.3233 C   0  0  0  0  0  0  0  0  0  0  0  0
    0.4048   -3.9336   -0.1080 C   0  0  0  0  0  0  0  0  0  0  0  0
   -0.6796   -3.0465    0.2372 C   0  0  0  0  0  0  0  0  0  0  0  0
    1.6850   -4.0380    0.4124 C   0  0  0  0  0  0  0  0  0  0  0  0
    1.4400   -5.4822   -1.2547 C   0  0  0  0  0  0  0  0  0  0  0  0
    2.3514   -5.0542   -0.3206 C   0  0  0  0  0  0  0  0  0  0  0  0
  1 13  1  0  0  0  0
  1 16  1  0  0  0  0
  2 11  2  0  0  0  0
  3 12  2  0  0  0  0
  4  9  1  0  0  0  0
  5  9  2  0  0  0  0
  6  8  1  0  0  0  0
  6 10  1  0  0  0  0
  6 12  1  0  0  0  0
  7 11  1  0  0  0  0
  7 12  1  0  0  0  0
  8 14  2  0  0  0  0
  9 16  1  0  0  0  0
 10 11  1  0  0  0  0
 13 14  1  0  0  0  0
 13 15  2  0  0  0  0
 15 17  1  0  0  0  0
 16 17  2  0  0  0  0
M  CHG  2   4  -1   9   1
M  END
