727
 OpenBabel10141417503D

 15 14  0  0  0  0  0  0  0  0999 V2000
    1.0433    0.0402   -0.5515 O   0  0  0  0  0  0  0  0  0  0  0  0
    3.2254    1.2387   -1.9560 O   0  0  0  0  0  0  0  0  0  0  0  0
    2.2699    2.3383    0.4968 O   0  0  0  0  0  0  0  0  0  0  0  0
   -0.9564   -0.8272   -0.2845 O   0  5  0  0  0  0  0  0  0  0  0  0
    0.3780   -0.6728    1.4914 O   0  0  0  0  0  0  0  0  0  0  0  0
    4.4147    0.2120   -3.5845 O   0  5  0  0  0  0  0  0  0  0  0  0
    2.7469    3.0642    2.5854 O   0  5  0  0  0  0  0  0  0  0  0  0
    3.0533    1.9224   -4.0466 O   0  0  0  0  0  0  0  0  0  0  0  0
    2.1500    4.4879    0.9758 O   0  0  0  0  0  0  0  0  0  0  0  0
    0.0842   -0.5494    0.3120 N   0  3  0  0  0  0  0  0  0  0  0  0
    3.5968    1.1025   -3.3100 N   0  3  0  0  0  0  0  0  0  0  0  0
    2.3996    3.3781    1.4520 N   0  3  0  0  0  0  0  0  0  0  0  0
    2.3791   -0.0303   -0.0351 C   0  0  0  0  0  0  0  0  0  0  0  0
    3.3256    0.0030   -1.2538 C   0  0  0  0  0  0  0  0  0  0  0  0
    2.6477    1.0671    1.0158 C   0  0  0  0  0  0  0  0  0  0  0  0
  1 10  1  0  0  0  0
  1 13  1  0  0  0  0
  2 11  1  0  0  0  0
  2 14  1  0  0  0  0
  3 12  1  0  0  0  0
  3 15  1  0  0  0  0
  4 10  1  0  0  0  0
  5 10  2  0  0  0  0
  6 11  1  0  0  0  0
  7 12  1  0  0  0  0
  8 11  2  0  0  0  0
  9 12  2  0  0  0  0
 13 14  1  0  0  0  0
 13 15  1  0  0  0  0
M  CHG  6   4  -1   6  -1   7  -1  10   1  11   1  12   1
M  END
