585
 OpenBabel10141417483D

 21 21  0  0  0  0  0  0  0  0999 V2000
    1.2576    0.7083    1.8112 S   0  0  0  0  0  0  0  0  0  0  0  0
    2.4474   -3.5390   -0.7479 S   0  0  0  0  0  0  0  0  0  0  0  0
   -4.2198   -1.5267    6.9381 O   0  5  0  0  0  0  0  0  0  0  0  0
   -2.6664   -0.4181    8.0243 O   0  0  0  0  0  0  0  0  0  0  0  0
   -0.2327   -2.4103   -2.9106 N   0  0  0  0  0  0  0  0  0  0  0  0
    2.0172   -1.0059   -0.8714 N   0  0  0  0  0  0  0  0  0  0  0  0
   -1.5553   -1.5482    3.7030 N   0  0  0  0  0  0  0  0  0  0  0  0
   -3.7341   -2.1579    4.3749 N   0  0  0  0  0  0  0  0  0  0  0  0
   -3.1111   -0.9894    7.0093 N   0  3  0  0  0  0  0  0  0  0  0  0
    1.2392   -2.2221   -2.9201 C   0  0  0  0  0  0  0  0  0  0  0  0
    1.8624   -2.1313   -1.5435 C   0  0  0  0  0  0  0  0  0  0  0  0
    0.4111   -0.7149    2.5599 C   0  0  0  0  0  0  0  0  0  0  0  0
    2.6027   -1.2498    0.3642 C   0  0  0  0  0  0  0  0  0  0  0  0
    2.8139   -0.1143    1.3175 C   0  0  0  0  0  0  0  0  0  0  0  0
   -0.9582   -0.3385    3.1283 C   0  0  0  0  0  0  0  0  0  0  0  0
    2.9429   -2.5734    0.5784 C   0  0  0  0  0  0  0  0  0  0  0  0
   -0.9032   -1.2889   -2.2443 C   0  0  0  0  0  0  0  0  0  0  0  0
   -0.7257   -2.5228   -4.2870 C   0  0  0  0  0  0  0  0  0  0  0  0
   -2.5431   -1.5474    4.6744 C   0  0  0  0  0  0  0  0  0  0  0  0
   -2.2258   -1.0098    5.8749 C   0  0  0  0  0  0  0  0  0  0  0  0
   -4.1703   -2.7304    3.1234 C   0  0  0  0  0  0  0  0  0  0  0  0
  1 12  1  0  0  0  0
  1 14  1  0  0  0  0
  2 11  1  0  0  0  0
  2 16  1  0  0  0  0
  3  9  1  0  0  0  0
  4  9  2  0  0  0  0
  5 10  1  0  0  0  0
  5 17  1  0  0  0  0
  5 18  1  0  0  0  0
  6 11  2  0  0  0  0
  6 13  1  0  0  0  0
  7 15  1  0  0  0  0
  7 19  1  0  0  0  0
  8 19  1  0  0  0  0
  8 21  1  0  0  0  0
  9 20  1  0  0  0  0
 10 11  1  0  0  0  0
 12 15  1  0  0  0  0
 13 14  1  0  0  0  0
 13 16  2  0  0  0  0
 19 20  2  0  0  0  0
M  CHG  2   3  -1   9   1
M  END
