
 OpenBabel10141419243D

 24 27  0  0  0  0  0  0  0  0999 V2000
    1.7431    2.5418    1.9272 C   0  0  0  0  0  0  0  0  0  0  0  0
    1.2466    1.3967    1.0535 C   0  0  0  0  0  0  0  0  0  0  0  0
    1.5892    1.3918   -0.4859 C   0  0  3  0  0  0  0  0  0  0  0  0
    1.1570    0.0014   -1.0327 C   0  0  0  0  0  0  0  0  0  0  0  0
    1.9937   -1.1586   -0.4534 C   0  0  0  0  0  0  0  0  0  0  0  0
    3.5310   -0.9381   -0.4753 C   0  0  3  0  0  0  0  0  0  0  0  0
    3.9434    0.5079   -0.0835 C   0  0  3  0  0  0  0  0  0  0  0  0
    3.0876    1.5034   -0.8660 C   0  0  3  0  0  0  0  0  0  0  0  0
    3.4022    2.9859   -0.7827 C   0  0  0  0  0  0  0  0  0  0  0  0
    2.1519    3.6501   -1.3690 C   0  0  0  0  0  0  0  0  0  0  0  0
    0.9771    2.6457   -1.2144 C   0  0  3  0  0  0  0  0  0  0  0  0
    0.3728    2.3537   -2.5320 C   0  0  0  0  0  0  0  0  0  0  0  0
   -0.1749    2.1431   -3.5791 C   0  0  0  0  0  0  0  0  0  0  0  0
   -0.0451    3.2567   -0.4308 O   0  0  0  0  0  0  0  0  0  0  0  0
    5.4461    0.6796   -0.3227 C   0  0  0  0  0  0  0  0  0  0  0  0
    6.2297   -0.2600    0.5895 C   0  0  0  0  0  0  0  0  0  0  0  0
    5.7766   -1.6988    0.5138 C   0  0  0  0  0  0  0  0  0  0  0  0
    6.6882   -2.6814    0.6258 C   0  0  0  0  0  0  0  0  0  0  0  0
    6.2866   -4.1045    0.7728 C   0  0  0  0  0  0  0  0  0  0  0  0
    7.2234   -4.9754    1.0236 N   0  0  0  0  0  0  0  0  0  0  0  0
    6.6985   -6.2557    1.2293 O   0  0  0  0  0  0  0  0  0  0  0  0
    4.8100   -4.4392    0.7188 C   0  0  0  0  0  0  0  0  0  0  0  0
    4.0296   -3.4072   -0.0810 C   0  0  0  0  0  0  0  0  0  0  0  0
    4.2806   -1.9722    0.4187 C   0  0  3  0  0  0  0  0  0  0  0  0
  1  2  1  0  0  0  0
  2  3  1  0  0  0  0
  3  4  1  0  0  0  0
  3  8  1  0  0  0  0
  3 11  1  0  0  0  0
  4  5  1  0  0  0  0
  5  6  1  0  0  0  0
  6  7  1  0  0  0  0
  6 24  1  0  0  0  0
  7  8  1  0  0  0  0
  7 15  1  0  0  0  0
  8  9  1  0  0  0  0
  9 10  1  0  0  0  0
 10 11  1  0  0  0  0
 11 12  1  0  0  0  0
 11 14  1  0  0  0  0
 12 13  3  0  0  0  0
 15 16  1  0  0  0  0
 16 17  1  0  0  0  0
 17 18  2  0  0  0  0
 17 24  1  0  0  0  0
 18 19  1  0  0  0  0
 19 20  2  3  0  0  0
 19 22  1  0  0  0  0
 20 21  1  0  0  0  0
 22 23  1  0  0  0  0
 23 24  1  0  0  0  0
M  END
