
 OpenBabel10141417513D

 44 47  0  0  1  0  0  0  0  0999 V2000
   -8.6756   -0.6644   -2.5164 C   0  0  0  0  0  0  0  0  0  0  0  0
   -8.7700   -1.2362   -3.7849 C   0  0  0  0  0  0  0  0  0  0  0  0
   -7.7105   -1.0718   -1.5728 C   0  0  0  0  0  0  0  0  0  0  0  0
   -9.6170    0.3173   -2.1365 O   0  0  0  0  0  0  0  0  0  0  0  0
   -9.7105   -0.6357   -4.7371 C   0  0  0  0  0  0  0  0  0  0  0  0
   -7.9406   -2.3219   -4.0766 C   0  0  0  0  0  0  0  0  0  0  0  0
   -6.8168   -2.1003   -1.9348 C   0  0  0  0  0  0  0  0  0  0  0  0
   -7.6040   -0.3886   -0.2333 C   0  0  0  0  0  0  0  0  0  0  0  0
  -10.7993    0.4767   -2.8672 C   0  0  0  0  0  0  0  0  0  0  0  0
  -10.6612    0.2318   -4.3408 C   0  0  0  0  0  0  0  0  0  0  0  0
   -9.5484   -0.9155   -6.0899 O   0  0  0  0  0  0  0  0  0  0  0  0
   -6.9818   -2.7559   -3.1549 C   0  0  0  0  0  0  0  0  0  0  0  0
   -5.8831   -2.4792   -1.0131 O   0  0  0  0  0  0  0  0  0  0  0  0
  -11.8401    0.7657   -2.2947 O   0  0  0  0  0  0  0  0  0  0  0  0
  -11.4490    0.8216   -5.3282 N   0  0  0  0  0  0  0  0  0  0  0  0
   -4.5788   -2.9426   -1.4435 C   0  0  1  0  0  0  0  0  0  0  0  0
  -12.4134    1.8021   -5.1986 C   0  0  0  0  0  0  0  0  0  0  0  0
   -3.6509   -1.7043   -1.5394 C   0  0  1  0  0  0  0  0  0  0  0  0
   -4.1956   -3.9217   -0.4784 O   0  0  0  0  0  0  0  0  0  0  0  0
  -13.0441    2.2981   -6.4664 C   0  0  0  0  0  0  0  0  0  0  0  0
  -12.7539    2.3399   -4.1538 O   0  0  0  0  0  0  0  0  0  0  0  0
   -2.1479   -2.0613   -1.4761 C   0  0  1  0  0  0  0  0  0  0  0  0
   -3.9656   -0.9192   -2.7094 O   0  0  0  0  0  0  0  0  0  0  0  0
   -2.8180   -4.2784   -0.3430 C   0  0  0  0  0  0  0  0  0  0  0  0
  -13.5792    3.6022   -6.4620 C   0  0  0  0  0  0  0  0  0  0  0  0
  -13.1569    1.5243   -7.6246 C   0  0  0  0  0  0  0  0  0  0  0  0
   -1.9083   -3.0001   -0.2673 C   0  0  2  0  0  0  0  0  0  0  0  0
   -1.7159   -2.6503   -2.7221 O   0  0  0  0  0  0  0  0  0  0  0  0
   -2.3917   -5.2522   -1.4614 C   0  0  0  0  0  0  0  0  0  0  0  0
   -2.7923   -5.1275    0.9465 C   0  0  0  0  0  0  0  0  0  0  0  0
  -14.2182    4.1533   -7.5910 C   0  0  0  0  0  0  0  0  0  0  0  0
  -13.7845    2.0580   -8.7551 C   0  0  0  0  0  0  0  0  0  0  0  0
   -2.1777   -2.1414    0.8592 O   0  0  0  0  0  0  0  0  0  0  0  0
   -1.3393   -1.7622   -3.6617 C   0  0  0  0  0  0  0  0  0  0  0  0
  -14.3178    3.3490   -8.7318 C   0  0  0  0  0  0  0  0  0  0  0  0
  -14.8104    5.5452   -7.4895 C   0  0  0  0  0  0  0  0  0  0  0  0
   -1.8133   -2.6019    2.1448 C   0  0  0  0  0  0  0  0  0  0  0  0
   -2.1234   -1.9655   -4.7547 N   0  0  0  0  0  0  0  0  0  0  0  0
   -0.5182   -0.8425   -3.5552 O   0  0  0  0  0  0  0  0  0  0  0  0
  -14.9588    3.7409   -9.8723 O   0  0  0  0  0  0  0  0  0  0  0  0
  -14.1969    6.5394   -8.4424 C   0  0  0  0  0  0  0  0  0  0  0  0
  -14.8076    7.2691   -9.3995 C   0  0  0  0  0  0  0  0  0  0  0  0
  -16.2764    7.2369   -9.7257 C   0  0  0  0  0  0  0  0  0  0  0  0
  -14.0146    8.2269  -10.2543 C   0  0  0  0  0  0  0  0  0  0  0  0
  1  2  2  0  0  0  0
  1  3  1  0  0  0  0
  1  4  1  0  0  0  0
  2  5  1  0  0  0  0
  2  6  1  0  0  0  0
  3  7  2  0  0  0  0
  3  8  1  0  0  0  0
  4  9  1  0  0  0  0
  5 10  2  0  0  0  0
  5 11  1  0  0  0  0
  6 12  2  0  0  0  0
  7 13  1  0  0  0  0
  7 12  1  0  0  0  0
  9 14  2  0  0  0  0
  9 10  1  0  0  0  0
 10 15  1  0  0  0  0
 15 17  1  0  0  0  0
 16 18  1  0  0  0  0
 16 19  1  0  0  0  0
 16 13  1  1  0  0  0
 17 20  1  0  0  0  0
 17 21  2  0  0  0  0
 18 22  1  0  0  0  0
 18 23  1  6  0  0  0
 19 24  1  0  0  0  0
 20 25  1  0  0  0  0
 20 26  2  0  0  0  0
 22 27  1  0  0  0  0
 22 28  1  6  0  0  0
 24 29  1  0  0  0  0
 24 30  1  0  0  0  0
 24 27  1  0  0  0  0
 25 31  2  0  0  0  0
 26 32  1  0  0  0  0
 27 33  1  1  0  0  0
 28 34  1  0  0  0  0
 31 35  1  0  0  0  0
 31 36  1  0  0  0  0
 32 35  2  0  0  0  0
 33 37  1  0  0  0  0
 34 38  1  0  0  0  0
 34 39  2  0  0  0  0
 35 40  1  0  0  0  0
 36 41  1  0  0  0  0
 41 42  2  0  0  0  0
 42 43  1  0  0  0  0
 42 44  1  0  0  0  0
M  END
