646
 OpenBabel10141419063D

 65 66  0  0  1  0  0  0  0  0999 V2000
    6.7745   -6.9720    4.8747 O   0  0  0  0  0  0  0  0  0  0  0  0
    5.6970   -6.4754    6.8101 O   0  0  0  0  0  0  0  0  0  0  0  0
    7.8063   -4.3442    7.3684 O   0  0  0  0  0  0  0  0  0  0  0  0
   10.2813   -7.9503    5.5882 O   0  0  0  0  0  0  0  0  0  0  0  0
    4.1416   -8.5914    7.4907 O   0  0  0  0  0  0  0  0  0  0  0  0
    5.8102   -7.8100   11.2811 O   0  0  0  0  0  0  0  0  0  0  0  0
    5.6067    4.2227   17.3546 O   0  0  0  0  0  0  0  0  0  0  0  0
    4.8723   -7.2012   14.5142 O   0  0  0  0  0  0  0  0  0  0  0  0
    6.2954   -9.5897   16.8832 O   0  0  0  0  0  0  0  0  0  0  0  0
    7.0522   -4.1029   18.0592 O   0  0  0  0  0  0  0  0  0  0  0  0
    5.9726  -10.4267    9.9343 O   0  0  0  0  0  0  0  0  0  0  0  0
    6.9282   -1.4233   18.2244 O   0  0  0  0  0  0  0  0  0  0  0  0
    8.3148    7.9381   18.9430 O   0  0  0  0  0  0  0  0  0  0  0  0
    3.9824  -11.3082    9.4461 O   0  0  0  0  0  0  0  0  0  0  0  0
    6.5336   -9.8988   12.7481 O   0  0  0  0  0  0  0  0  0  0  0  0
    6.4744    1.1689   18.2213 O   0  0  0  0  0  0  0  0  0  0  0  0
    7.4784    4.0892   16.0190 O   0  0  0  0  0  0  0  0  0  0  0  0
    8.4921   -6.8777    8.2668 N   0  0  0  0  0  0  0  0  0  0  0  0
    8.8620   -6.4754    6.8885 C   0  0  2  0  0  0  0  0  0  0  0  0
    7.9331   -5.3627    6.3711 C   0  0  1  0  0  0  0  0  0  0  0  0
    8.9138   -7.6688    5.9143 C   0  0  1  0  0  0  0  0  0  0  0  0
    6.5872   -5.9166    5.8409 C   0  0  3  0  0  0  0  0  0  0  0  0
    8.1186   -7.3935    4.6241 C   0  0  1  0  0  0  0  0  0  0  0  0
    5.2187   -5.6707    7.8948 C   0  0  3  0  0  0  0  0  0  0  0  0
    4.2578   -6.5512    8.7424 C   0  0  0  0  0  0  0  0  0  0  0  0
    4.6523   -8.0437    8.7174 C   0  0  3  0  0  0  0  0  0  0  0  0
    4.1249   -8.9017    9.8811 C   0  0  3  0  0  0  0  0  0  0  0  0
    8.0606   -8.6557    3.7610 C   0  0  0  0  0  0  0  0  0  0  0  0
    4.4898   -8.3564   11.2793 C   0  0  3  0  0  0  0  0  0  0  0  0
    4.2131   -9.3173   12.4577 C   0  0  0  0  0  0  0  0  0  0  0  0
    4.5136   -4.4231    7.4197 C   0  0  0  0  0  0  0  0  0  0  0  0
    5.4382   -7.6187   15.7531 C   0  0  3  0  0  0  0  0  0  0  0  0
    6.0959   -9.0090   15.5891 C   0  0  3  0  0  0  0  0  0  0  0  0
    6.4531   -6.5651   16.2404 C   0  0  0  0  0  0  0  0  0  0  0  0
    5.8507   -5.1571   16.2305 C   0  0  0  0  0  0  0  0  0  0  0  0
    6.8200   -4.0480   16.6543 C   0  0  3  0  0  0  0  0  0  0  0  0
    5.2385   -9.9691   14.7600 C   0  0  0  0  0  0  0  0  0  0  0  0
    6.6591    6.2524   18.4177 C   0  0  3  0  0  0  0  0  0  0  0  0
    6.1802   -2.7001   16.2979 C   0  0  0  0  0  0  0  0  0  0  0  0
    4.6540  -10.3076    9.7034 C   0  0  0  0  0  0  0  0  0  0  0  0
    5.4315   -9.7215   13.2756 C   0  0  0  0  0  0  0  0  0  0  0  0
    6.9404   -1.4669   16.7981 C   0  0  3  0  0  0  0  0  0  0  0  0
    7.7197    7.2450   17.8328 C   0  0  3  0  0  0  0  0  0  0  0  0
    5.6879    5.6564   17.3680 C   0  0  3  0  0  0  0  0  0  0  0  0
    6.2427   -0.2171   16.2445 C   0  0  0  0  0  0  0  0  0  0  0  0
    7.1961    8.3023   16.7958 C   0  0  3  0  0  0  0  0  0  0  0  0
    6.7312    1.1187   16.8193 C   0  0  3  0  0  0  0  0  0  0  0  0
    7.3498    5.1698   19.2658 C   0  0  0  0  0  0  0  0  0  0  0  0
    4.6679   -3.1928    7.9488 C   0  0  0  0  0  0  0  0  0  0  0  0
    5.9452    2.2355   16.1516 C   0  0  0  0  0  0  0  0  0  0  0  0
    4.2580    6.1459   17.6067 C   0  0  0  0  0  0  0  0  0  0  0  0
    7.9507    9.6360   16.8660 C   0  0  0  0  0  0  0  0  0  0  0  0
    6.4709    3.5941   16.5086 C   0  0  0  0  0  0  0  0  0  0  0  0
    7.3231    7.7619   15.3790 C   0  0  0  0  0  0  0  0  0  0  0  0
    4.0077   -2.0342    7.3840 C   0  0  0  0  0  0  0  0  0  0  0  0
    6.2896    7.5817   14.5396 C   0  0  0  0  0  0  0  0  0  0  0  0
    3.9505   -0.7696    7.8297 C   0  0  0  0  0  0  0  0  0  0  0  0
    6.4101    6.7806   13.3406 C   0  0  0  0  0  0  0  0  0  0  0  0
    4.4659   -0.1730    9.0485 C   0  0  0  0  0  0  0  0  0  0  0  0
    5.3405    6.2991   12.6882 C   0  0  0  0  0  0  0  0  0  0  0  0
    5.4103    5.3447   11.5231 C   0  0  0  0  0  0  0  0  0  0  0  0
    4.3147    1.1443    9.2793 C   0  0  0  0  0  0  0  0  0  0  0  0
    4.7367    3.9990   11.8539 C   0  0  0  0  0  0  0  0  0  0  0  0
    4.7102    1.8595   10.4776 C   0  0  0  0  0  0  0  0  0  0  0  0
    4.4535    3.1725   10.6248 C   0  0  0  0  0  0  0  0  0  0  0  0
  1 22  1  0  0  0  0
  1 23  1  0  0  0  0
  2 22  1  0  0  0  0
  2 24  1  0  0  0  0
  5 26  1  0  0  0  0
  6 29  1  0  0  0  0
  7 44  1  0  0  0  0
  7 53  1  0  0  0  0
  8 32  1  0  0  0  0
  9 33  1  0  0  0  0
 10 36  1  0  0  0  0
 11 40  1  0  0  0  0
 12 42  1  0  0  0  0
 13 43  1  0  0  0  0
 14 40  2  0  0  0  0
 15 41  2  0  0  0  0
 16 47  1  0  0  0  0
 17 53  2  0  0  0  0
 19 18  1  1  0  0  0
 19 20  1  0  0  0  0
 19 21  1  0  0  0  0
 20  3  1  1  0  0  0
 20 22  1  0  0  0  0
 21 23  1  0  0  0  0
 21  4  1  6  0  0  0
 23 28  1  6  0  0  0
 24 25  1  0  0  0  0
 24 31  1  0  0  0  0
 25 26  1  0  0  0  0
 26 27  1  0  0  0  0
 27 29  1  0  0  0  0
 27 40  1  0  0  0  0
 29 30  1  0  0  0  0
 30 41  1  0  0  0  0
 31 49  2  0  0  0  0
 32 33  1  0  0  0  0
 32 34  1  0  0  0  0
 33 37  1  0  0  0  0
 34 35  1  0  0  0  0
 35 36  1  0  0  0  0
 36 39  1  0  0  0  0
 37 41  1  0  0  0  0
 38 43  1  0  0  0  0
 38 44  1  0  0  0  0
 38 48  1  0  0  0  0
 39 42  1  0  0  0  0
 42 45  1  0  0  0  0
 43 46  1  0  0  0  0
 44 51  1  0  0  0  0
 45 47  1  0  0  0  0
 46 52  1  0  0  0  0
 46 54  1  0  0  0  0
 47 50  1  0  0  0  0
 49 55  1  0  0  0  0
 50 53  1  0  0  0  0
 54 56  2  0  0  0  0
 55 57  2  0  0  0  0
 56 58  1  0  0  0  0
 57 59  1  0  0  0  0
 58 60  2  0  0  0  0
 59 62  2  0  0  0  0
 60 61  1  0  0  0  0
 61 63  1  0  0  0  0
 62 64  1  0  0  0  0
 63 65  1  0  0  0  0
 64 65  2  0  0  0  0
M  END
