1165
 OpenBabel10141417493D

 26 29  0  0  1  0  0  0  0  0999 V2000
    0.9062   -0.1168   -0.0661 F   0  0  0  0  0  0  0  0  0  0  0  0
    4.9845    2.3814   -0.0699 O   0  0  0  0  0  0  0  0  0  0  0  0
    4.4191   -3.6012   -0.1130 O   0  0  0  0  0  0  0  0  0  0  0  0
    8.6217   -3.5421    0.3614 O   0  0  0  0  0  0  0  0  0  0  0  0
    7.0171   -4.8627   -0.4138 O   0  0  0  0  0  0  0  0  0  0  0  0
    2.2336    2.4433   -0.0736 N   0  0  0  0  0  0  0  0  0  0  0  0
    6.4620   -0.0926   -0.0576 N   0  0  0  0  0  0  0  0  0  0  0  0
    0.3813    4.6915    0.4871 N   0  0  0  0  0  0  0  0  0  0  0  0
    0.9102    2.5066   -0.7257 C   0  0  0  0  0  0  0  0  0  0  0  0
    2.2592    3.1102    1.2477 C   0  0  0  0  0  0  0  0  0  0  0  0
    7.1361    1.2103    0.0540 C   0  0  3  0  0  0  0  0  0  0  0  0
    2.9056    1.1989   -0.0719 C   0  0  0  0  0  0  0  0  0  0  0  0
    5.0492   -0.0541   -0.0754 C   0  0  0  0  0  0  0  0  0  0  0  0
    4.3256    1.1629   -0.0736 C   0  0  0  0  0  0  0  0  0  0  0  0
    0.4217    3.9732   -0.8087 C   0  0  0  0  0  0  0  0  0  0  0  0
    1.7032    4.5542    1.1428 C   0  0  0  0  0  0  0  0  0  0  0  0
    6.2931    2.2857   -0.6362 C   0  0  0  0  0  0  0  0  0  0  0  0
    4.3290   -1.2576   -0.0994 C   0  0  0  0  0  0  0  0  0  0  0  0
    2.2459   -0.0455   -0.0904 C   0  0  0  0  0  0  0  0  0  0  0  0
    7.1192   -1.3082   -0.0426 C   0  0  0  0  0  0  0  0  0  0  0  0
    2.9348   -1.2546   -0.1049 C   0  0  0  0  0  0  0  0  0  0  0  0
    7.4002    1.5370    1.5254 C   0  0  0  0  0  0  0  0  0  0  0  0
    5.0564   -2.5540   -0.1039 C   0  0  0  0  0  0  0  0  0  0  0  0
   -0.6954    4.1961    1.3429 C   0  0  0  0  0  0  0  0  0  0  0  0
    6.5419   -2.5207   -0.0657 C   0  0  0  0  0  0  0  0  0  0  0  0
    7.3593   -3.7473   -0.0721 C   0  0  0  0  0  0  0  0  0  0  0  0
  1 19  1  0  0  0  0
  2 14  1  0  0  0  0
  2 17  1  0  0  0  0
  3 23  2  0  0  0  0
  4 26  1  0  0  0  0
  5 26  2  0  0  0  0
  6  9  1  0  0  0  0
  6 10  1  0  0  0  0
  6 12  1  0  0  0  0
  7 11  1  0  0  0  0
  7 13  1  0  0  0  0
  7 20  1  0  0  0  0
  8 15  1  0  0  0  0
  8 16  1  0  0  0  0
  8 24  1  0  0  0  0
  9 15  1  0  0  0  0
 10 16  1  0  0  0  0
 11 17  1  0  0  0  0
 11 22  1  0  0  0  0
 12 14  1  0  0  0  0
 12 19  2  0  0  0  0
 13 14  2  0  0  0  0
 13 18  1  0  0  0  0
 18 21  2  0  0  0  0
 18 23  1  0  0  0  0
 19 21  1  0  0  0  0
 20 25  2  0  0  0  0
 23 25  1  0  0  0  0
 25 26  1  0  0  0  0
M  END
