1083
 OpenBabel10141417503D

 35 35  0  0  1  0  0  0  0  0999 V2000
   -8.3002    2.8598   -3.5139 O   0  0  0  0  0  0  0  0  0  0  0  0
   -3.8554    0.1447   -2.4434 O   0  0  0  0  0  0  0  0  0  0  0  0
   -9.1853    4.4521   -4.8830 O   0  0  0  0  0  0  0  0  0  0  0  0
   -5.7721   -1.1039   -1.9088 O   0  0  0  0  0  0  0  0  0  0  0  0
   -3.7230   -5.3643   -1.3457 O   0  0  0  0  0  0  0  0  0  0  0  0
   -4.3918   -3.1779   -0.8942 N   0  0  0  0  0  0  0  0  0  0  0  0
   -6.6523    2.8116   -3.2926 C   0  0  2  0  0  0  0  0  0  0  0  0
   -7.0040    4.3354   -4.0601 C   0  0  2  0  0  0  0  0  0  0  0  0
   -5.7013    1.4438   -3.2302 C   0  0  0  0  0  0  0  0  0  0  0  0
   -7.6899    5.5566   -3.3068 C   0  0  0  0  0  0  0  0  0  0  0  0
   -4.6126    1.4096   -2.1633 C   0  0  2  0  0  0  0  0  0  0  0  0
   -8.3216    3.8740   -4.4857 C   0  0  0  0  0  0  0  0  0  0  0  0
   -4.0595    2.8565   -2.2181 C   0  0  0  0  0  0  0  0  0  0  0  0
   -7.2366    6.6128   -4.2098 C   0  0  0  0  0  0  0  0  0  0  0  0
   -4.9128    3.8920   -1.3503 C   0  0  0  0  0  0  0  0  0  0  0  0
   -5.6979    6.6259   -4.2139 C   0  0  0  0  0  0  0  0  0  0  0  0
   -6.3943    4.2707   -1.5184 C   0  0  0  0  0  0  0  0  0  0  0  0
   -7.9810    3.1685   -1.4420 C   0  0  0  0  0  0  0  0  0  0  0  0
   -5.3051    7.7844   -5.0715 C   0  0  0  0  0  0  0  0  0  0  0  0
   -8.1647    1.3718   -2.2704 C   0  0  0  0  0  0  0  0  0  0  0  0
   -4.5712   -1.0598   -2.1898 C   0  0  0  0  0  0  0  0  0  0  0  0
   -3.7416   -2.3668   -2.0013 C   0  0  2  0  0  0  0  0  0  0  0  0
   -7.8698    0.9555   -4.1803 C   0  0  0  0  0  0  0  0  0  0  0  0
   -3.8259    7.9573   -5.3607 C   0  0  0  0  0  0  0  0  0  0  0  0
   -3.3800   -3.2231   -3.2529 C   0  0  0  0  0  0  0  0  0  0  0  0
   -9.0711    1.3082   -5.0444 C   0  0  0  0  0  0  0  0  0  0  0  0
   -4.4631   -4.1357   -3.9012 C   0  0  0  0  0  0  0  0  0  0  0  0
   -9.0439    1.8246   -6.4692 C   0  0  0  0  0  0  0  0  0  0  0  0
   -3.0342    8.4372   -4.1515 C   0  0  0  0  0  0  0  0  0  0  0  0
  -10.3941    2.6342   -6.5454 C   0  0  0  0  0  0  0  0  0  0  0  0
   -5.6218   -3.3535   -4.4957 C   0  0  0  0  0  0  0  0  0  0  0  0
   -3.8375   -5.0056   -5.0051 C   0  0  0  0  0  0  0  0  0  0  0  0
  -10.7543    3.0039   -7.9306 C   0  0  0  0  0  0  0  0  0  0  0  0
   -4.3124   -4.5317   -0.6746 C   0  0  0  0  0  0  0  0  0  0  0  0
  -10.8397    1.7096   -8.6814 C   0  0  0  0  0  0  0  0  0  0  0  0
  1  7  1  0  0  0  0
  1 12  1  0  0  0  0
  2 21  1  0  0  0  0
  3 12  2  0  0  0  0
  4 21  2  0  0  0  0
  5 34  2  0  0  0  0
  6 34  1  0  0  0  0
  7  8  1  0  0  0  0
  7  9  1  6  0  0  0
  8 12  1  0  0  0  0
  8 10  1  1  0  0  0
  9 11  1  0  0  0  0
 10 14  1  0  0  0  0
 11  2  1  6  0  0  0
 11 13  1  0  0  0  0
 13 15  1  0  0  0  0
 14 16  1  0  0  0  0
 15 17  1  0  0  0  0
 16 19  1  0  0  0  0
 17 18  1  0  0  0  0
 18 20  1  0  0  0  0
 19 24  1  0  0  0  0
 20 23  1  0  0  0  0
 21 22  1  0  0  0  0
 22  6  1  1  0  0  0
 22 25  1  0  0  0  0
 23 26  1  0  0  0  0
 24 29  1  0  0  0  0
 25 27  1  0  0  0  0
 26 28  1  0  0  0  0
 27 31  1  0  0  0  0
 27 32  1  0  0  0  0
 28 30  1  0  0  0  0
 30 33  1  0  0  0  0
 33 35  1  0  0  0  0
M  END
