65028
 OpenBabel10141417483D

 22 22  0  0  1  0  0  0  0  0999 V2000
   -0.8052   -0.0384    3.2546 O   0  0  0  0  0  0  0  0  0  0  0  0
   -2.4958    4.4351    1.3267 O   0  0  0  0  0  0  0  0  0  0  0  0
   -0.3092    4.2892    0.6068 O   0  0  0  0  0  0  0  0  0  0  0  0
   -1.5517   -3.2267    0.2447 O   0  0  0  0  0  0  0  0  0  0  0  0
   -1.5051   -0.9978   -0.2939 N   0  0  0  0  0  0  0  0  0  0  0  0
   -4.3546   -0.1124    1.5220 N   0  0  0  0  0  0  0  0  0  0  0  0
   -1.8591   -0.5158    1.0698 C   0  0  2  0  0  0  0  0  0  0  0  0
   -3.1016    0.4388    0.9667 C   0  0  2  0  0  0  0  0  0  0  0  0
   -0.6165    0.0935    1.8272 C   0  0  1  0  0  0  0  0  0  0  0  0
   -2.8945    1.8307    1.5679 C   0  0  0  0  0  0  0  0  0  0  0  0
   -0.4450    1.5447    1.4685 C   0  0  0  0  0  0  0  0  0  0  0  0
   -1.5084    2.3542    1.3587 C   0  0  0  0  0  0  0  0  0  0  0  0
    0.2632    0.3958    4.1230 C   0  0  0  0  0  0  0  0  0  0  0  0
   -0.2239    0.3066    5.5860 C   0  0  0  0  0  0  0  0  0  0  0  0
    1.5499   -0.4434    3.9926 C   0  0  0  0  0  0  0  0  0  0  0  0
   -1.3439    3.7891    1.0600 C   0  0  0  0  0  0  0  0  0  0  0  0
   -1.4044   -2.3393   -0.5880 C   0  0  0  0  0  0  0  0  0  0  0  0
   -1.4666    1.1304    5.8695 C   0  0  0  0  0  0  0  0  0  0  0  0
    1.3061   -1.9210    4.2801 C   0  0  0  0  0  0  0  0  0  0  0  0
   -1.1050   -2.6446   -2.0333 C   0  0  0  0  0  0  0  0  0  0  0  0
   -2.5608    5.8170    0.9797 C   0  0  0  0  0  0  0  0  0  0  0  0
   -2.8460    5.9690   -0.5024 C   0  0  0  0  0  0  0  0  0  0  0  0
  1 13  1  0  0  0  0
  2 16  1  0  0  0  0
  2 21  1  0  0  0  0
  3 16  2  0  0  0  0
  4 17  2  0  0  0  0
  5 17  1  0  0  0  0
  7  5  1  6  0  0  0
  7  8  1  0  0  0  0
  7  9  1  0  0  0  0
  8  6  1  1  0  0  0
  8 10  1  0  0  0  0
  9 11  1  0  0  0  0
  9  1  1  1  0  0  0
 10 12  1  0  0  0  0
 11 12  2  0  0  0  0
 12 16  1  0  0  0  0
 13 14  1  0  0  0  0
 13 15  1  0  0  0  0
 14 18  1  0  0  0  0
 15 19  1  0  0  0  0
 17 20  1  0  0  0  0
 21 22  1  0  0  0  0
M  END
