713
 OpenBabel10141417483D

 28 31  0  0  1  0  0  0  0  0999 V2000
   -2.1960    0.0780    1.7428 S   0  0  0  0  0  0  0  0  0  0  0  0
    1.2336    1.1833   -0.0634 O   0  0  0  0  0  0  0  0  0  0  0  0
   -1.5677   -1.9974   -1.8892 O   0  0  0  0  0  0  0  0  0  0  0  0
   -3.0048   -0.4777   -2.7200 O   0  0  0  0  0  0  0  0  0  0  0  0
   -0.0883   -1.8733    4.0138 O   0  0  0  0  0  0  0  0  0  0  0  0
    0.8468    0.0591    7.6487 O   0  0  0  0  0  0  0  0  0  0  0  0
   -0.4575   -0.4536   -0.1430 N   0  0  0  0  0  0  0  0  0  0  0  0
    0.7802   -0.0416    2.9998 N   0  0  0  0  0  0  0  0  0  0  0  0
    0.7950    1.3362    7.1797 N   0  0  0  0  0  0  0  0  0  0  0  0
   -0.8289   -0.9948    1.1782 C   0  0  1  0  0  0  0  0  0  0  0  0
   -2.5152    0.8561    0.0850 C   0  0  0  0  0  0  0  0  0  0  0  0
   -1.5106    0.2276   -0.9178 C   0  0  2  0  0  0  0  0  0  0  0  0
    0.6197   -0.6588    1.6455 C   0  0  1  0  0  0  0  0  0  0  0  0
    0.6220    0.2265    0.3699 C   0  0  0  0  0  0  0  0  0  0  0  0
   -4.0110    0.6516   -0.1949 C   0  0  0  0  0  0  0  0  0  0  0  0
   -2.2665    2.3683    0.2049 C   0  0  0  0  0  0  0  0  0  0  0  0
   -2.1223   -0.7602   -1.9231 C   0  0  0  0  0  0  0  0  0  0  0  0
    0.3774   -0.7404    4.1296 C   0  0  0  0  0  0  0  0  0  0  0  0
    0.5552   -0.1115    5.4313 C   0  0  0  0  0  0  0  0  0  0  0  0
    0.5953    1.2677    5.8518 C   0  0  0  0  0  0  0  0  0  0  0  0
    0.6814   -0.8135    6.6282 C   0  0  0  0  0  0  0  0  0  0  0  0
    0.4441    2.5358    5.1212 C   0  0  0  0  0  0  0  0  0  0  0  0
    0.6766   -2.2321    7.0572 C   0  0  0  0  0  0  0  0  0  0  0  0
   -0.3430    2.6630    3.9728 C   0  0  0  0  0  0  0  0  0  0  0  0
    1.0633    3.6959    5.6203 C   0  0  0  0  0  0  0  0  0  0  0  0
   -0.4632    3.8918    3.3134 C   0  0  0  0  0  0  0  0  0  0  0  0
    0.9205    4.9298    4.9807 C   0  0  0  0  0  0  0  0  0  0  0  0
    0.1638    5.0255    3.8194 C   0  0  0  0  0  0  0  0  0  0  0  0
  1 11  1  0  0  0  0
  2 14  2  0  0  0  0
  3 17  1  0  0  0  0
  4 17  2  0  0  0  0
  5 18  2  0  0  0  0
  6  9  1  0  0  0  0
  6 21  1  0  0  0  0
  7 10  1  0  0  0  0
  7 12  1  0  0  0  0
  7 14  1  0  0  0  0
  8 18  1  0  0  0  0
  9 20  2  0  0  0  0
 10  1  1  1  0  0  0
 10 13  1  0  0  0  0
 11 12  1  0  0  0  0
 11 15  1  0  0  0  0
 11 16  1  0  0  0  0
 12 17  1  6  0  0  0
 13 14  1  0  0  0  0
 13  8  1  1  0  0  0
 18 19  1  0  0  0  0
 19 20  1  0  0  0  0
 19 21  2  0  0  0  0
 20 22  1  0  0  0  0
 21 23  1  0  0  0  0
 22 24  2  0  0  0  0
 22 25  1  0  0  0  0
 24 26  1  0  0  0  0
 25 27  2  0  0  0  0
 26 28  2  0  0  0  0
 27 28  1  0  0  0  0
M  END
