1096
 OpenBabel10141417483D

 20 21  0  0  1  0  0  0  0  0999 V2000
    3.7429   -0.7850   -0.4952 O   0  0  0  0  0  0  0  0  0  0  0  0
    4.9034   -1.6145    2.7055 O   0  5  0  0  0  0  0  0  0  0  0  0
    2.7621   -2.0401    2.4025 O   0  0  0  0  0  0  0  0  0  0  0  0
    3.8734    3.1182    4.4955 N   0  0  0  0  0  0  0  0  0  0  0  0
    5.1369    4.8443    6.5144 N   0  0  0  0  0  0  0  0  0  0  0  0
    3.7388   -1.2740    2.4728 N   0  3  0  0  0  0  0  0  0  0  0  0
    3.9318    4.5696    4.3101 C   0  0  3  0  0  0  0  0  0  0  0  0
    2.6952    5.0181    3.5277 C   0  0  0  0  0  0  0  0  0  0  0  0
    2.6892    4.3544    2.1533 C   0  0  0  0  0  0  0  0  0  0  0  0
    3.9730    5.2553    5.6995 C   0  0  0  0  0  0  0  0  0  0  0  0
    2.9693    2.8729    2.2373 C   0  0  0  0  0  0  0  0  0  0  0  0
    3.6013    2.3360    3.3742 C   0  0  0  0  0  0  0  0  0  0  0  0
    2.6433    2.0470    1.1434 C   0  0  0  0  0  0  0  0  0  0  0  0
    5.1579    5.5048    7.8317 C   0  0  0  0  0  0  0  0  0  0  0  0
    3.8113    0.9594    3.4356 C   0  0  0  0  0  0  0  0  0  0  0  0
    2.8923    0.6671    1.1750 C   0  0  0  0  0  0  0  0  0  0  0  0
    3.4714    0.1487    2.3432 C   0  0  0  0  0  0  0  0  0  0  0  0
    3.9462    5.1279    8.6882 C   0  0  0  0  0  0  0  0  0  0  0  0
    6.4372    5.1147    8.5800 C   0  0  0  0  0  0  0  0  0  0  0  0
    2.5517   -0.1848   -0.0144 C   0  0  0  0  0  0  0  0  0  0  0  0
  1 20  1  0  0  0  0
  2  6  1  0  0  0  0
  3  6  2  0  0  0  0
  4  7  1  0  0  0  0
  4 12  1  0  0  0  0
  5 10  1  0  0  0  0
  5 14  1  0  0  0  0
  6 17  1  0  0  0  0
  7  8  1  0  0  0  0
  7 10  1  0  0  0  0
  8  9  1  0  0  0  0
  9 11  1  0  0  0  0
 11 12  1  0  0  0  0
 11 13  2  0  0  0  0
 12 15  2  0  0  0  0
 13 16  1  0  0  0  0
 14 18  1  0  0  0  0
 14 19  1  0  0  0  0
 15 17  1  0  0  0  0
 16 17  2  0  0  0  0
 16 20  1  0  0  0  0
M  CHG  2   2  -1   6   1
M  END
