991
 OpenBabel10141417513D

 22 24  0  0  0  0  0  0  0  0999 V2000
   -0.1514   -0.9663    0.3365 O   0  0  0  0  0  0  0  0  0  0  0  0
   -2.2119   -1.8926   -3.0872 O   0  0  0  0  0  0  0  0  0  0  0  0
   -1.9635   -2.7524   -1.0517 O   0  0  0  0  0  0  0  0  0  0  0  0
   -0.2345    1.2061   -0.2501 N   0  0  0  0  0  0  0  0  0  0  0  0
    1.1420   -0.5349    0.2111 C   0  0  0  0  0  0  0  0  0  0  0  0
    1.0884    0.8013   -0.1594 C   0  0  0  0  0  0  0  0  0  0  0  0
   -0.9169    0.1210    0.0430 C   0  0  0  0  0  0  0  0  0  0  0  0
   -2.3867   -0.0947    0.0698 C   0  0  0  0  0  0  0  0  0  0  0  0
    2.1478   -1.5466    0.5051 C   0  0  0  0  0  0  0  0  0  0  0  0
    2.1959    1.7048   -0.4376 C   0  0  0  0  0  0  0  0  0  0  0  0
   -2.9255   -0.5214   -1.2897 C   0  0  0  0  0  0  0  0  0  0  0  0
    3.2825   -1.2394    1.2663 C   0  0  0  0  0  0  0  0  0  0  0  0
    1.9992   -2.8577    0.0240 C   0  0  0  0  0  0  0  0  0  0  0  0
    2.0490    3.0786   -0.1916 C   0  0  0  0  0  0  0  0  0  0  0  0
    3.4093    1.2506   -0.9713 C   0  0  0  0  0  0  0  0  0  0  0  0
    4.2727   -2.2004    1.4909 C   0  0  0  0  0  0  0  0  0  0  0  0
    2.9813   -3.8238    0.2624 C   0  0  0  0  0  0  0  0  0  0  0  0
    3.1013    3.9672   -0.4374 C   0  0  0  0  0  0  0  0  0  0  0  0
    4.4702    2.1336   -1.1921 C   0  0  0  0  0  0  0  0  0  0  0  0
   -2.3112   -1.8183   -1.7460 C   0  0  0  0  0  0  0  0  0  0  0  0
    4.1248   -3.4899    0.9839 C   0  0  0  0  0  0  0  0  0  0  0  0
    4.3165    3.4913   -0.9245 C   0  0  0  0  0  0  0  0  0  0  0  0
  1  5  1  0  0  0  0
  1  7  1  0  0  0  0
  2 20  1  0  0  0  0
  3 20  2  0  0  0  0
  4  6  1  0  0  0  0
  4  7  2  0  0  0  0
  5  6  2  0  0  0  0
  5  9  1  0  0  0  0
  6 10  1  0  0  0  0
  7  8  1  0  0  0  0
  8 11  1  0  0  0  0
  9 12  2  0  0  0  0
  9 13  1  0  0  0  0
 10 14  2  0  0  0  0
 10 15  1  0  0  0  0
 11 20  1  0  0  0  0
 12 16  1  0  0  0  0
 13 17  2  0  0  0  0
 14 18  1  0  0  0  0
 15 19  2  0  0  0  0
 16 21  2  0  0  0  0
 17 21  1  0  0  0  0
 18 22  2  0  0  0  0
 19 22  1  0  0  0  0
M  END
