5361463
 OpenBabel10141417493D

 26 28  0  0  0  0  0  0  0  0999 V2000
    5.8503    1.0739   -2.4031 Cl  0  0  0  0  0  0  0  0  0  0  0  0
   -0.5115    0.9181    3.4692 Cl  0  0  0  0  0  0  0  0  0  0  0  0
    5.4033   -3.7712   -0.1800 Cl  0  0  0  0  0  0  0  0  0  0  0  0
   -2.8948   -3.6700    2.0582 Cl  0  0  0  0  0  0  0  0  0  0  0  0
    1.2972    1.0622    0.0546 O   0  0  0  0  0  0  0  0  0  0  0  0
    5.2562    3.5501    0.0771 N   0  0  0  0  0  0  0  0  0  0  0  0
    2.0659    2.2080   -0.1840 N   0  0  0  0  0  0  0  0  0  0  0  0
    7.2007    4.3874    0.7354 N   0  0  0  0  0  0  0  0  0  0  0  0
    4.1196    3.2542   -0.7841 C   0  0  0  0  0  0  0  0  0  0  0  0
    3.3335    1.9713   -0.4410 C   0  0  0  0  0  0  0  0  0  0  0  0
    3.9961    0.5787   -0.4060 C   0  0  0  0  0  0  0  0  0  0  0  0
    5.0529    0.1143   -1.2120 C   0  0  0  0  0  0  0  0  0  0  0  0
    3.4623   -0.3603    0.5059 C   0  0  0  0  0  0  0  0  0  0  0  0
    5.3464    3.2843    1.4130 C   0  0  0  0  0  0  0  0  0  0  0  0
   -0.7587    0.1472    0.8458 C   0  0  0  0  0  0  0  0  0  0  0  0
   -0.0543    1.4013    0.3675 C   0  0  0  0  0  0  0  0  0  0  0  0
    6.3672    4.2598   -0.2868 C   0  0  0  0  0  0  0  0  0  0  0  0
    5.5066   -1.2274   -1.1199 C   0  0  0  0  0  0  0  0  0  0  0  0
    3.8522   -1.7035    0.5426 C   0  0  0  0  0  0  0  0  0  0  0  0
    6.5844    3.7804    1.7903 C   0  0  0  0  0  0  0  0  0  0  0  0
    4.8879   -2.1327   -0.2628 C   0  0  0  0  0  0  0  0  0  0  0  0
   -1.0075   -0.1422    2.1993 C   0  0  0  0  0  0  0  0  0  0  0  0
   -1.1624   -0.7990   -0.1158 C   0  0  0  0  0  0  0  0  0  0  0  0
   -1.6709   -1.3191    2.5743 C   0  0  0  0  0  0  0  0  0  0  0  0
   -1.8197   -1.9749    0.2574 C   0  0  0  0  0  0  0  0  0  0  0  0
   -2.0768   -2.2267    1.6008 C   0  0  0  0  0  0  0  0  0  0  0  0
  1 12  1  0  0  0  0
  2 22  1  0  0  0  0
  3 21  1  0  0  0  0
  4 26  1  0  0  0  0
  5  7  1  0  0  0  0
  5 16  1  0  0  0  0
  6  9  1  0  0  0  0
  6 14  1  0  0  0  0
  6 17  1  0  0  0  0
  7 10  2  0  0  0  0
  8 17  2  0  0  0  0
  8 20  1  0  0  0  0
  9 10  1  0  0  0  0
 10 11  1  0  0  0  0
 11 12  2  0  0  0  0
 11 13  1  0  0  0  0
 12 18  1  0  0  0  0
 13 19  2  0  0  0  0
 14 20  2  0  0  0  0
 15 16  1  0  0  0  0
 15 22  2  0  0  0  0
 15 23  1  0  0  0  0
 18 21  2  0  0  0  0
 19 21  1  0  0  0  0
 22 24  1  0  0  0  0
 23 25  2  0  0  0  0
 24 26  2  0  0  0  0
 25 26  1  0  0  0  0
M  END
