
 OpenBabel10141417523D

 16 17  0  0  0  0  0  0  0  0999 V2000
    3.5140   -0.2639   -1.6172 N   0  0  0  0  0  0  0  0  0  0  0  0
    5.2246   -1.5097    0.5929 C   0  0  0  0  0  0  0  0  0  0  0  0
    3.1190   -1.4786   -0.8255 C   0  0  1  0  0  0  0  0  0  0  0  0
    3.7198   -1.5082    0.5898 C   0  0  0  0  0  0  0  0  0  0  0  0
    6.0398   -0.3924    0.5799 C   0  0  0  0  0  0  0  0  0  0  0  0
    7.3445   -0.8054    0.5858 N   0  0  0  0  0  0  0  0  0  0  0  0
    7.4080   -2.1778    0.6123 C   0  0  0  0  0  0  0  0  0  0  0  0
    6.0942   -2.6521    0.6167 C   0  0  0  0  0  0  0  0  0  0  0  0
    5.8868   -4.0489    0.6443 C   0  0  0  0  0  0  0  0  0  0  0  0
    8.5255   -3.0221    0.6372 C   0  0  0  0  0  0  0  0  0  0  0  0
    8.2949   -4.3988    0.6632 C   0  0  0  0  0  0  0  0  0  0  0  0
    0.9025   -2.1467    0.0153 O   0  0  0  0  0  0  0  0  0  0  0  0
    1.5831   -1.5129   -0.7782 C   0  0  0  0  0  0  0  0  0  0  0  0
    1.0534   -0.7627   -1.7823 O   0  0  0  0  0  0  0  0  0  0  0  0
    6.9990   -4.8964    0.6630 C   0  0  0  0  0  0  0  0  0  0  0  0
    6.8500   -6.2542    0.6785 O   0  0  0  0  0  0  0  0  0  0  0  0
  2  8  1  0  0  0  0
  2  4  1  0  0  0  0
  2  5  2  0  0  0  0
  3  4  1  1  0  0  0
  3 13  1  0  0  0  0
  3  1  1  0  0  0  0
  5  6  1  0  0  0  0
  6  7  1  0  0  0  0
  7  8  2  0  0  0  0
  7 10  1  0  0  0  0
  8  9  1  0  0  0  0
  9 15  2  0  0  0  0
 10 11  2  0  0  0  0
 11 15  1  0  0  0  0
 13 12  2  0  0  0  0
 14 13  1  0  0  0  0
 15 16  1  0  0  0  0
M  END
