1428
 OpenBabel10141417493D

 17 18  0  0  0  0  0  0  0  0999 V2000
    1.1684    0.8428    0.6846 O   0  0  0  0  0  0  0  0  0  0  0  0
   -1.2372   -2.1220   -2.0731 O   0  0  0  0  0  0  0  0  0  0  0  0
   -0.1632   -0.1606   -5.4224 O   0  0  0  0  0  0  0  0  0  0  0  0
   -0.3286   -0.1411   -3.0874 C   0  0  0  0  0  0  0  0  0  0  0  0
   -0.8575   -0.4466   -4.4431 C   0  0  0  0  0  0  0  0  0  0  0  0
   -2.2032   -1.0378   -4.6696 C   0  0  0  0  0  0  0  0  0  0  0  0
   -0.5468   -0.9479   -1.9650 C   0  0  0  0  0  0  0  0  0  0  0  0
    0.4698    1.0043   -2.9516 C   0  0  0  0  0  0  0  0  0  0  0  0
    0.7154    0.5924   -0.5814 C   0  0  0  0  0  0  0  0  0  0  0  0
   -0.0365   -0.5768   -0.7186 C   0  0  0  0  0  0  0  0  0  0  0  0
    0.9896    1.3703   -1.7051 C   0  0  0  0  0  0  0  0  0  0  0  0
   -3.2708   -0.8186   -3.7899 C   0  0  0  0  0  0  0  0  0  0  0  0
   -2.4097   -1.8044   -5.8240 C   0  0  0  0  0  0  0  0  0  0  0  0
   -4.5104   -1.4160   -4.0286 C   0  0  0  0  0  0  0  0  0  0  0  0
   -3.6544   -2.3882   -6.0676 C   0  0  0  0  0  0  0  0  0  0  0  0
   -4.6997   -2.2036   -5.1635 C   0  0  0  0  0  0  0  0  0  0  0  0
    1.4349    2.2078    0.9889 C   0  0  0  0  0  0  0  0  0  0  0  0
  1  9  1  0  0  0  0
  1 17  1  0  0  0  0
  2  7  1  0  0  0  0
  3  5  2  0  0  0  0
  4  5  1  0  0  0  0
  4  7  2  0  0  0  0
  4  8  1  0  0  0  0
  5  6  1  0  0  0  0
  6 12  2  0  0  0  0
  6 13  1  0  0  0  0
  7 10  1  0  0  0  0
  8 11  2  0  0  0  0
  9 10  2  0  0  0  0
  9 11  1  0  0  0  0
 12 14  1  0  0  0  0
 13 15  2  0  0  0  0
 14 16  2  0  0  0  0
 15 16  1  0  0  0  0
M  END
