497
 OpenBabel10141417483D

 23 27  0  0  1  0  0  0  0  0999 V2000
   -1.9376    4.6380   -3.9900 O   0  0  0  0  0  0  0  0  0  0  0  0
   -4.8242    2.4020   -5.7798 O   0  0  0  0  0  0  0  0  0  0  0  0
   -3.9180    6.9226   -4.8176 O   0  0  0  0  0  0  0  0  0  0  0  0
   -0.0883    3.1506   -2.3505 O   0  0  0  0  0  0  0  0  0  0  0  0
   -2.9543    3.0823   -8.9909 N   0  0  0  0  0  0  0  0  0  0  0  0
   -2.8619    3.9001   -6.0219 C   0  0  1  0  0  0  0  0  0  0  0  0
   -4.0493    3.2256   -6.6727 C   0  0  1  0  0  0  0  0  0  0  0  0
   -3.2497    2.3566   -7.7466 C   0  0  1  0  0  0  0  0  0  0  0  0
   -3.1776    4.6036   -4.7110 C   0  0  2  0  0  0  0  0  0  0  0  0
   -2.0681    4.7460   -7.1220 C   0  0  0  0  0  0  0  0  0  0  0  0
   -2.0051    2.8322   -5.3919 C   0  0  0  0  0  0  0  0  0  0  0  0
   -5.0734    4.3279   -7.0488 C   0  0  0  0  0  0  0  0  0  0  0  0
   -2.6973    1.0368   -7.0636 C   0  0  0  0  0  0  0  0  0  0  0  0
   -2.4477    4.4574   -8.6599 C   0  0  0  0  0  0  0  0  0  0  0  0
   -1.8915    1.4914   -5.8081 C   0  0  0  0  0  0  0  0  0  0  0  0
   -5.3709    5.2879   -5.8656 C   0  0  0  0  0  0  0  0  0  0  0  0
   -4.1097    5.7481   -5.1160 C   0  0  0  0  0  0  0  0  0  0  0  0
   -1.4518    3.3554   -4.2362 C   0  0  0  0  0  0  0  0  0  0  0  0
   -4.0142    3.0410   -9.9783 C   0  0  0  0  0  0  0  0  0  0  0  0
   -1.0755    0.6879   -5.0262 C   0  0  0  0  0  0  0  0  0  0  0  0
   -0.6167    2.5746   -3.4667 C   0  0  0  0  0  0  0  0  0  0  0  0
   -0.4317    1.2335   -3.8791 C   0  0  0  0  0  0  0  0  0  0  0  0
    0.9558    2.4405   -1.6990 C   0  0  0  0  0  0  0  0  0  0  0  0
  1 18  1  0  0  0  0
  3 17  2  0  0  0  0
  4 23  1  0  0  0  0
  4 21  1  0  0  0  0
  5 14  1  0  0  0  0
  5 19  1  0  0  0  0
  6  7  1  0  0  0  0
  6  9  1  0  0  0  0
  6 10  1  1  0  0  0
  6 11  1  0  0  0  0
  7  8  1  0  0  0  0
  7 12  1  0  0  0  0
  7  2  1  1  0  0  0
  8  5  1  6  0  0  0
  8 13  1  0  0  0  0
  9  1  1  6  0  0  0
  9 17  1  0  0  0  0
 10 14  1  0  0  0  0
 11 15  2  0  0  0  0
 11 18  1  0  0  0  0
 12 16  1  0  0  0  0
 13 15  1  0  0  0  0
 15 20  1  0  0  0  0
 16 17  1  0  0  0  0
 18 21  2  0  0  0  0
 20 22  2  0  0  0  0
 21 22  1  0  0  0  0
M  END
