935
 OpenBabel10141417503D

 19 20  0  0  0  0  0  0  0  0999 V2000
    0.7073    0.4329    0.3111 O   0  0  0  0  0  0  0  0  0  0  0  0
    5.2986   -2.0585   -2.3849 N   0  0  0  0  0  0  0  0  0  0  0  0
    5.0303   -4.1372   -1.4874 N   0  0  0  0  0  0  0  0  0  0  0  0
    2.0545    2.9713   -0.0468 C   0  0  0  0  0  0  0  0  0  0  0  0
    2.7679    1.6004    0.0383 C   0  0  0  0  0  0  0  0  0  0  0  0
    4.1249   -0.9338    0.1315 C   0  0  0  0  0  0  0  0  0  0  0  0
    2.0706    0.3866    0.1853 C   0  0  0  0  0  0  0  0  0  0  0  0
    2.7106   -0.8745    0.2097 C   0  0  0  0  0  0  0  0  0  0  0  0
    4.8531    0.2715    0.0257 C   0  0  0  0  0  0  0  0  0  0  0  0
    4.1678    1.5016   -0.0319 C   0  0  0  0  0  0  0  0  0  0  0  0
    3.0269    4.1722   -0.1925 C   0  0  0  0  0  0  0  0  0  0  0  0
    1.1260    3.0208   -1.2813 C   0  0  0  0  0  0  0  0  0  0  0  0
    1.2290    3.2441    1.2312 C   0  0  0  0  0  0  0  0  0  0  0  0
    4.8456   -2.2753    0.1066 C   0  0  0  0  0  0  0  0  0  0  0  0
    5.0533   -2.8390   -1.2832 C   0  0  0  0  0  0  0  0  0  0  0  0
    1.9018   -2.1487    0.2961 C   0  0  0  0  0  0  0  0  0  0  0  0
    6.3584    0.2990   -0.0799 C   0  0  0  0  0  0  0  0  0  0  0  0
    5.1552   -2.8824   -3.5587 C   0  0  0  0  0  0  0  0  0  0  0  0
    5.2766   -4.2829   -2.9507 C   0  0  0  0  0  0  0  0  0  0  0  0
  1  7  1  0  0  0  0
  2 15  1  0  0  0  0
  2 18  1  0  0  0  0
  3 15  2  0  0  0  0
  3 19  1  0  0  0  0
  4  5  1  0  0  0  0
  4 11  1  0  0  0  0
  4 12  1  0  0  0  0
  4 13  1  0  0  0  0
  5  7  2  0  0  0  0
  5 10  1  0  0  0  0
  6  8  2  0  0  0  0
  6  9  1  0  0  0  0
  6 14  1  0  0  0  0
  7  8  1  0  0  0  0
  8 16  1  0  0  0  0
  9 10  2  0  0  0  0
  9 17  1  0  0  0  0
 14 15  1  0  0  0  0
 18 19  1  0  0  0  0
M  END
