1192
 OpenBabel10141417513D

 22 26  0  0  1  0  0  0  0  0999 V2000
    1.7608    1.1161   -2.8110 O   0  0  0  0  0  0  0  0  0  0  0  0
    5.7743    0.6682   -1.8887 O   0  0  0  0  0  0  0  0  0  0  0  0
    2.0110   -1.3490   -4.5189 O   0  0  0  0  0  0  0  0  0  0  0  0
    0.3732    3.6257   -2.1169 O   0  0  0  0  0  0  0  0  0  0  0  0
    6.1025    1.5221   -5.5197 N   0  0  0  0  0  0  0  0  0  0  0  0
    3.9909    1.1617   -3.5470 C   0  0  1  0  0  0  0  0  0  0  0  0
    5.4204    0.7222   -3.2992 C   0  0  1  0  0  0  0  0  0  0  0  0
    6.2635    1.8676   -4.0440 C   0  0  1  0  0  0  0  0  0  0  0  0
    2.9298    0.2645   -2.9646 C   0  0  2  0  0  0  0  0  0  0  0  0
    3.6909    1.6294   -5.0204 C   0  0  0  0  0  0  0  0  0  0  0  0
    3.6881    2.3606   -2.7461 C   0  0  0  0  0  0  0  0  0  0  0  0
    5.6079   -0.7828   -3.6530 C   0  0  0  0  0  0  0  0  0  0  0  0
    6.0513    3.1680   -2.9561 C   0  0  0  0  0  0  0  0  0  0  0  0
    4.7565    1.1566   -5.9895 C   0  0  0  0  0  0  0  0  0  0  0  0
    4.5701    3.4198   -2.5819 C   0  0  0  0  0  0  0  0  0  0  0  0
    4.3581   -1.5912   -4.0832 C   0  0  0  0  0  0  0  0  0  0  0  0
    2.9806   -0.9382   -3.9177 C   0  0  0  0  0  0  0  0  0  0  0  0
    2.3302    2.3380   -2.4938 C   0  0  0  0  0  0  0  0  0  0  0  0
    7.1457    0.8330   -6.2440 C   0  0  0  0  0  0  0  0  0  0  0  0
    3.9630    4.5936   -2.1503 C   0  0  0  0  0  0  0  0  0  0  0  0
    1.7269    3.5164   -2.1642 C   0  0  0  0  0  0  0  0  0  0  0  0
    2.5425    4.6463   -1.9760 C   0  0  0  0  0  0  0  0  0  0  0  0
  1 18  1  0  0  0  0
  3 17  2  0  0  0  0
  4 21  1  0  0  0  0
  5 14  1  0  0  0  0
  5 19  1  0  0  0  0
  6  7  1  0  0  0  0
  6  9  1  0  0  0  0
  6 10  1  1  0  0  0
  6 11  1  0  0  0  0
  7  8  1  0  0  0  0
  7 12  1  0  0  0  0
  7  2  1  1  0  0  0
  8  5  1  1  0  0  0
  8 13  1  0  0  0  0
  9  1  1  6  0  0  0
  9 17  1  0  0  0  0
 10 14  1  0  0  0  0
 11 15  2  0  0  0  0
 11 18  1  0  0  0  0
 12 16  1  0  0  0  0
 13 15  1  0  0  0  0
 15 20  1  0  0  0  0
 16 17  1  0  0  0  0
 18 21  2  0  0  0  0
 20 22  2  0  0  0  0
 21 22  1  0  0  0  0
M  END
