
 OpenBabel10141417503D

 33 36  0  0  1  0  0  0  0  0999 V2000
    2.8732    1.9677   -0.8882 C   0  0  1  0  0  0  0  0  0  0  0  0
    3.6028    1.0089    0.0677 C   0  0  2  0  0  0  0  0  0  0  0  0
    1.4009    2.1812   -0.4992 C   0  0  2  0  0  0  0  0  0  0  0  0
    3.2621    1.7380   -2.3896 C   0  0  1  0  0  0  0  0  0  0  0  0
    2.7442   -0.1763    0.4843 C   0  0  0  0  0  0  0  0  0  0  0  0
    5.0218    0.6635   -0.4974 C   0  0  0  0  0  0  0  0  0  0  0  0
    3.8484    1.7298    1.2936 O   0  0  0  0  0  0  0  0  0  0  0  0
    0.5620    0.9219   -0.2150 C   0  0  1  0  0  0  0  0  0  0  0  0
    0.7713    2.9544   -1.5303 O   0  0  0  0  0  0  0  0  0  0  0  0
    4.7534    2.1198   -2.4032 C   0  0  0  0  0  0  0  0  0  0  0  0
    3.1183    0.4292   -3.0767 N   0  0  0  0  0  0  0  0  0  0  0  0
    1.3993   -0.2078    0.3479 C   0  0  0  0  0  0  0  0  0  0  0  0
    3.4400   -1.1838    1.1345 O   0  0  0  0  0  0  0  0  0  0  0  0
    5.6107    1.6217   -1.4872 C   0  0  0  0  0  0  0  0  0  0  0  0
    5.7020   -0.2826   -0.0999 O   0  0  0  0  0  0  0  0  0  0  0  0
   -0.6731    1.1851    0.7186 C   0  0  2  0  0  0  0  0  0  0  0  0
    5.1501    3.0380   -3.3703 O   0  0  0  0  0  0  0  0  0  0  0  0
    3.6012    0.4758   -4.4714 C   0  0  0  0  0  0  0  0  0  0  0  0
    1.7574   -0.0948   -3.1157 C   0  0  0  0  0  0  0  0  0  0  0  0
    0.6422   -1.4145    0.7951 C   0  0  0  0  0  0  0  0  0  0  0  0
    7.0465    1.9943   -1.3775 C   0  0  0  0  0  0  0  0  0  0  0  0
   -1.4993   -0.1003    0.8033 C   0  0  0  0  0  0  0  0  0  0  0  0
   -1.4938    2.4083    0.2721 C   0  0  0  0  0  0  0  0  0  0  0  0
   -0.8378   -1.3461    0.8495 C   0  0  0  0  0  0  0  0  0  0  0  0
    1.2159   -2.4664    1.0779 O   0  0  0  0  0  0  0  0  0  0  0  0
    7.6461    2.4693   -2.5041 N   0  0  0  0  0  0  0  0  0  0  0  0
    7.6731    1.9263   -0.3278 O   0  0  0  0  0  0  0  0  0  0  0  0
   -2.9067   -0.0989    0.8617 C   0  0  0  0  0  0  0  0  0  0  0  0
   -1.5767   -2.5378    0.9478 C   0  0  0  0  0  0  0  0  0  0  0  0
   -3.6304   -1.2916    0.9438 C   0  0  0  0  0  0  0  0  0  0  0  0
   -2.9654   -2.5110    0.9854 C   0  0  0  0  0  0  0  0  0  0  0  0
   -1.0028   -3.7800    1.0039 O   0  0  0  0  0  0  0  0  0  0  0  0
   -0.2055    1.4917    2.0386 O   0  0  0  0  0  0  0  0  0  0  0  0
  1  2  1  6  0  0  0
  1  3  1  0  0  0  0
  1  4  1  0  0  0  0
  2  5  1  0  0  0  0
  2  6  1  0  0  0  0
  2  7  1  6  0  0  0
  3  8  1  0  0  0  0
  3  9  1  6  0  0  0
  4 10  1  0  0  0  0
  4 11  1  1  0  0  0
  5 12  2  0  0  0  0
  5 13  1  0  0  0  0
  6 14  1  0  0  0  0
  6 15  2  0  0  0  0
  8 16  1  0  0  0  0
  8 12  1  1  0  0  0
 10 14  2  0  0  0  0
 10 17  1  0  0  0  0
 11 18  1  0  0  0  0
 11 19  1  0  0  0  0
 12 20  1  0  0  0  0
 14 21  1  0  0  0  0
 16 22  1  0  0  0  0
 16 23  1  6  0  0  0
 16 33  1  0  0  0  0
 20 24  1  0  0  0  0
 20 25  2  0  0  0  0
 21 26  1  0  0  0  0
 21 27  2  0  0  0  0
 22 28  2  0  0  0  0
 22 24  1  0  0  0  0
 24 29  2  0  0  0  0
 28 30  1  0  0  0  0
 29 31  1  0  0  0  0
 29 32  1  0  0  0  0
 30 31  2  0  0  0  0
M  END
