1267
 OpenBabel10141417503D

 31 35  0  0  1  0  0  0  0  0999 V2000
    1.3137    9.2756   -0.4292 F   0  0  0  0  0  0  0  0  0  0  0  0
    3.2590    5.1207    0.9447 O   0  0  0  0  0  0  0  0  0  0  0  0
   16.5477    3.6765    3.5842 O   0  0  0  0  0  0  0  0  0  0  0  0
   11.4599    5.6770    2.8864 O   0  0  0  0  0  0  0  0  0  0  0  0
    8.0337    3.1013    1.8275 N   0  0  0  0  0  0  0  0  0  0  0  0
   13.6163    4.8801    2.7455 N   0  0  0  0  0  0  0  0  0  0  0  0
    4.5648    4.7002    1.1085 N   0  0  0  0  0  0  0  0  0  0  0  0
   13.9696    2.5659    2.4892 N   0  0  0  0  0  0  0  0  0  0  0  0
    6.8406    5.6480    0.8289 C   0  0  3  0  0  0  0  0  0  0  0  0
    7.3865    4.5658   -0.1170 C   0  0  0  0  0  0  0  0  0  0  0  0
    7.3894    5.4891    2.2551 C   0  0  0  0  0  0  0  0  0  0  0  0
    7.3836    3.1643    0.5065 C   0  0  0  0  0  0  0  0  0  0  0  0
    7.3674    4.0393    2.7421 C   0  0  0  0  0  0  0  0  0  0  0  0
    9.4935    3.2743    1.7217 C   0  0  0  0  0  0  0  0  0  0  0  0
    5.3381    5.7466    0.7858 C   0  0  0  0  0  0  0  0  0  0  0  0
   10.2520    3.1580    3.0563 C   0  0  0  0  0  0  0  0  0  0  0  0
   11.7352    3.3335    2.8569 C   0  0  0  0  0  0  0  0  0  0  0  0
   14.1179    6.2487    2.6743 C   0  0  0  0  0  0  0  0  0  0  0  0
   15.9202    3.9720    2.3379 C   0  0  3  0  0  0  0  0  0  0  0  0
   15.6253    6.3885    2.8004 C   0  0  0  0  0  0  0  0  0  0  0  0
   16.3067    5.3726    1.8995 C   0  0  0  0  0  0  0  0  0  0  0  0
   14.4092    3.7849    2.5086 C   0  0  0  0  0  0  0  0  0  0  0  0
    4.5489    6.8685    0.4097 C   0  0  0  0  0  0  0  0  0  0  0  0
   12.2470    4.7295    2.8451 C   0  0  0  0  0  0  0  0  0  0  0  0
   12.6325    2.3476    2.6813 C   0  0  0  0  0  0  0  0  0  0  0  0
    3.2464    6.4126    0.5289 C   0  0  0  0  0  0  0  0  0  0  0  0
    4.7661    8.1923   -0.0142 C   0  0  0  0  0  0  0  0  0  0  0  0
   12.2260    0.8976    2.6505 C   0  0  0  0  0  0  0  0  0  0  0  0
    2.1145    7.1732    0.2597 C   0  0  0  0  0  0  0  0  0  0  0  0
    3.6473    8.9907   -0.2929 C   0  0  0  0  0  0  0  0  0  0  0  0
    2.3564    8.4804   -0.1543 C   0  0  0  0  0  0  0  0  0  0  0  0
  1 31  1  0  0  0  0
  2  7  1  0  0  0  0
  2 26  1  0  0  0  0
  3 19  1  0  0  0  0
  4 24  2  0  0  0  0
  5 12  1  0  0  0  0
  5 13  1  0  0  0  0
  5 14  1  0  0  0  0
  6 18  1  0  0  0  0
  6 22  1  0  0  0  0
  6 24  1  0  0  0  0
  7 15  2  0  0  0  0
  8 22  2  0  0  0  0
  8 25  1  0  0  0  0
  9 10  1  0  0  0  0
  9 11  1  0  0  0  0
  9 15  1  0  0  0  0
 10 12  1  0  0  0  0
 11 13  1  0  0  0  0
 14 16  1  0  0  0  0
 15 23  1  0  0  0  0
 16 17  1  0  0  0  0
 17 24  1  0  0  0  0
 17 25  2  0  0  0  0
 18 20  1  0  0  0  0
 19 21  1  0  0  0  0
 19 22  1  0  0  0  0
 20 21  1  0  0  0  0
 23 26  2  0  0  0  0
 23 27  1  0  0  0  0
 25 28  1  0  0  0  0
 26 29  1  0  0  0  0
 27 30  2  0  0  0  0
 29 31  2  0  0  0  0
 30 31  1  0  0  0  0
M  END
