282
 OpenBabel10141417493D

 13 12  0  0  0  0  0  0  0  0999 V2000
    0.9866    0.0182   -0.0974 P   0  0  0  0  0  0  0  0  0  0  0  0
    3.6180    1.6950   -0.2497 P   0  0  0  0  0  0  0  0  0  0  0  0
    3.2911   -0.4473    1.2160 O   0  0  0  0  0  0  0  0  0  0  0  0
    0.9754   -1.4351    0.6790 O   0  0  0  0  0  0  0  0  0  0  0  0
    0.9978    0.9187    1.2793 O   0  0  0  0  0  0  0  0  0  0  0  0
    2.6393    2.6722   -1.0771 O   0  0  0  0  0  0  0  0  0  0  0  0
    3.5065    2.3925    1.2028 O   0  0  0  0  0  0  0  0  0  0  0  0
   -0.5577    0.0182   -0.0974 O   0  0  0  0  0  0  0  0  0  0  0  0
    5.0225    1.7793   -0.7384 O   0  0  0  0  0  0  0  0  0  0  0  0
    3.5459    0.6350   -3.0207 N   0  0  0  0  0  0  0  0  0  0  0  0
    2.8166    0.0182   -0.0974 C   0  0  0  0  0  0  0  0  0  0  0  0
    3.4488   -0.9489   -1.1233 C   0  0  0  0  0  0  0  0  0  0  0  0
    3.1225   -0.6846   -2.5920 C   0  0  0  0  0  0  0  0  0  0  0  0
  1  4  1  0  0  0  0
  1  5  1  0  0  0  0
  1  8  2  0  0  0  0
  1 11  1  0  0  0  0
  2  6  1  0  0  0  0
  2  7  1  0  0  0  0
  2  9  2  0  0  0  0
  2 11  1  0  0  0  0
  3 11  1  0  0  0  0
 10 13  1  0  0  0  0
 11 12  1  0  0  0  0
 12 13  1  0  0  0  0
M  END
