617
 OpenBabel10141417483D

 11 11  0  0  1  0  0  0  0  0999 V2000
   -0.6479   -0.9684   -0.0590 O   0  0  0  0  0  0  0  0  0  0  0  0
    2.3349    0.8238   -0.2651 O   0  0  0  0  0  0  0  0  0  0  0  0
   -2.1958    0.6768   -0.3075 O   0  0  0  0  0  0  0  0  0  0  0  0
    0.0522    1.1359   -0.2323 N   0  0  0  0  0  0  0  0  0  0  0  0
    0.7897   -1.0391    0.0475 C   0  0  3  0  0  0  0  0  0  0  0  0
    1.1231   -1.5311    1.4616 C   0  0  0  0  0  0  0  0  0  0  0  0
    1.1911    0.4057   -0.1647 C   0  0  0  0  0  0  0  0  0  0  0  0
    1.3080   -1.9257   -1.0756 C   0  0  0  0  0  0  0  0  0  0  0  0
   -1.0299    0.3315   -0.2033 C   0  0  0  0  0  0  0  0  0  0  0  0
    2.5981   -1.7986    1.7225 C   0  0  0  0  0  0  0  0  0  0  0  0
   -0.0144    2.5602   -0.4374 C   0  0  0  0  0  0  0  0  0  0  0  0
  1  5  1  0  0  0  0
  1  9  1  0  0  0  0
  2  7  2  0  0  0  0
  3  9  2  0  0  0  0
  4  7  1  0  0  0  0
  4  9  1  0  0  0  0
  4 11  1  0  0  0  0
  5  6  1  0  0  0  0
  5  7  1  0  0  0  0
  5  8  1  0  0  0  0
  6 10  1  0  0  0  0
M  END
