1626
 OpenBabel10141417513D

 12 12  0  0  1  0  0  0  0  0999 V2000
    1.2565    0.4063    0.1736 N   0  0  0  0  0  0  0  0  0  0  0  0
    1.1182    1.0200   -1.1646 C   0  0  0  0  0  0  0  0  0  0  0  0
    1.2837    2.5272   -1.1818 C   0  0  0  0  0  0  0  0  0  0  0  0
    1.0771   -1.0546    0.0936 C   0  0  0  0  0  0  0  0  0  0  0  0
    2.5712    0.6879    0.7621 C   0  0  0  0  0  0  0  0  0  0  0  0
    2.2967    3.1197   -1.9506 C   0  0  0  0  0  0  0  0  0  0  0  0
    0.4295    3.3522   -0.4355 C   0  0  0  0  0  0  0  0  0  0  0  0
    2.4663    4.5050   -1.9540 C   0  0  0  0  0  0  0  0  0  0  0  0
    0.5981    4.7382   -0.4436 C   0  0  0  0  0  0  0  0  0  0  0  0
    1.6194    5.3133   -1.1984 C   0  0  0  0  0  0  0  0  0  0  0  0
   -0.2900   -1.4350   -0.2854 C   0  0  0  0  0  0  0  0  0  0  0  0
   -1.4045   -1.7478   -0.6064 C   0  0  0  0  0  0  0  0  0  0  0  0
  1  2  1  0  0  0  0
  1  4  1  0  0  0  0
  1  5  1  0  0  0  0
  2  3  1  0  0  0  0
  3  6  2  0  0  0  0
  3  7  1  0  0  0  0
  4 11  1  0  0  0  0
  6  8  1  0  0  0  0
  7  9  2  0  0  0  0
  8 10  2  0  0  0  0
  9 10  1  0  0  0  0
 11 12  3  0  0  0  0
M  END
