
 OpenBabel10141417493D

 31 34  0  0  0  0  0  0  0  0999 V2000
   -1.5586   -2.5684   -1.9679 C   0  0  0  0  0  0  0  0  0  0  0  0
   -1.6585   -3.7945   -1.2937 C   0  0  0  0  0  0  0  0  0  0  0  0
   -0.5373   -4.2382   -0.5761 C   0  0  0  0  0  0  0  0  0  0  0  0
    0.6491   -3.4757   -0.5575 C   0  0  0  0  0  0  0  0  0  0  0  0
    0.7424   -2.2435   -1.2102 C   0  0  0  0  0  0  0  0  0  0  0  0
   -0.3794   -1.8106   -1.9286 C   0  0  0  0  0  0  0  0  0  0  0  0
    3.8205   -0.5635   -0.2765 N   0  0  0  0  0  0  0  0  0  0  0  0
    3.1576   -1.6697   -0.6265 C   0  0  0  0  0  0  0  0  0  0  0  0
    1.9121   -1.4692   -1.2287 N   0  0  0  0  0  0  0  0  0  0  0  0
    5.0184   -0.7457    0.3054 C   0  0  0  0  0  0  0  0  0  0  0  0
    5.5965   -1.9791    0.5084 C   0  0  0  0  0  0  0  0  0  0  0  0
    4.8718   -3.0826    0.1065 C   0  0  0  0  0  0  0  0  0  0  0  0
    3.6461   -2.9056   -0.4395 N   0  0  0  0  0  0  0  0  0  0  0  0
    5.4325   -4.3928    0.1727 N   0  0  0  0  0  0  0  0  0  0  0  0
    6.3784   -4.9380    1.1044 C   0  0  0  0  0  0  0  0  0  0  0  0
    4.5728   -5.4005   -0.4774 C   0  0  0  0  0  0  0  0  0  0  0  0
   -2.9458   -4.5629   -1.3889 C   0  0  0  0  0  0  0  0  0  0  0  0
   -0.5007   -5.7635    0.3441 S   0  0  0  0  0  0  0  0  0  0  0  0
    6.4515   -4.4308    2.4528 C   0  0  0  0  0  0  0  0  0  0  0  0
    7.3424   -4.8888    3.4595 C   0  0  0  0  0  0  0  0  0  0  0  0
    8.1594   -5.9149    2.9971 C   0  0  0  0  0  0  0  0  0  0  0  0
    8.1503   -6.4715    1.6721 C   0  0  0  0  0  0  0  0  0  0  0  0
    7.2503   -5.9913    0.6940 C   0  0  0  0  0  0  0  0  0  0  0  0
    9.1090   -6.5936    3.7268 C   0  0  0  0  0  0  0  0  0  0  0  0
    9.6535   -7.4765    2.8215 N   0  0  0  0  0  0  0  0  0  0  0  0
    9.0875   -7.4314    1.5938 N   0  0  0  0  0  0  0  0  0  0  0  0
   10.7430   -8.4055    3.0328 C   0  0  0  0  0  0  0  0  0  0  0  0
    9.5414   -6.5056    5.1451 C   0  0  0  0  0  0  0  0  0  0  0  0
   -0.1842   -5.2298    1.9137 N   0  0  0  0  0  0  0  0  0  0  0  0
   -1.8326   -6.3261    0.4409 O   0  0  0  0  0  0  0  0  0  0  0  0
    0.6263   -6.5342   -0.1076 O   0  0  0  0  0  0  0  0  0  0  0  0
  1  2  2  0  0  0  0
  1  6  1  0  0  0  0
  2  3  1  0  0  0  0
  2 17  1  0  0  0  0
  3  4  2  0  0  0  0
  3 18  1  0  0  0  0
  4  5  1  0  0  0  0
  5  6  2  0  0  0  0
  5  9  1  0  0  0  0
  7  8  1  0  0  0  0
  7 10  2  0  0  0  0
  8  9  1  0  0  0  0
  8 13  2  0  0  0  0
 10 11  1  0  0  0  0
 11 12  2  0  0  0  0
 12 13  1  0  0  0  0
 12 14  1  0  0  0  0
 14 15  1  0  0  0  0
 14 16  1  0  0  0  0
 15 19  1  0  0  0  0
 15 23  2  0  0  0  0
 18 29  1  0  0  0  0
 19 20  2  0  0  0  0
 20 21  1  0  0  0  0
 21 22  1  0  0  0  0
 21 24  2  0  0  0  0
 22 23  1  0  0  0  0
 22 26  2  0  0  0  0
 24 25  1  0  0  0  0
 24 28  1  0  0  0  0
 25 26  1  0  0  0  0
 25 27  1  0  0  0  0
 30 18  2  0  0  0  0
 31 18  2  0  0  0  0
M  END
