1359
 OpenBabel10141417493D

 21 22  0  0  1  0  0  0  0  0999 V2000
    0.8234    1.4507    0.7434 O   0  0  0  0  0  0  0  0  0  0  0  0
    3.5222   -0.7133    2.0048 O   0  0  0  0  0  0  0  0  0  0  0  0
    3.5761    1.3704    4.0294 N   0  0  0  0  0  0  0  0  0  0  0  0
   -0.2371    4.0888    0.6547 C   0  0  0  0  0  0  0  0  0  0  0  0
   -1.3679    5.1454    0.7374 C   0  0  0  0  0  0  0  0  0  0  0  0
    1.0668    4.8875    0.7931 C   0  0  0  0  0  0  0  0  0  0  0  0
   -0.6783    6.4930    0.9348 C   0  0  0  0  0  0  0  0  0  0  0  0
    0.6573    6.1366    1.5610 C   0  0  0  0  0  0  0  0  0  0  0  0
   -0.2432    3.1549   -0.5448 C   0  0  0  0  0  0  0  0  0  0  0  0
    0.2628    1.8428   -0.4486 C   0  0  0  0  0  0  0  0  0  0  0  0
   -0.7603    3.5799   -1.7847 C   0  0  0  0  0  0  0  0  0  0  0  0
    4.1392    2.6118    4.6200 C   0  0  0  0  0  0  0  0  0  0  0  0
    2.4756    0.2619    2.0647 C   0  0  1  0  0  0  0  0  0  0  0  0
    3.0243    1.5653    2.6712 C   0  0  0  0  0  0  0  0  0  0  0  0
    1.9187    0.5259    0.6559 C   0  0  0  0  0  0  0  0  0  0  0  0
    0.1184    0.9521   -1.5266 C   0  0  0  0  0  0  0  0  0  0  0  0
   -0.8766    2.6892   -2.8594 C   0  0  0  0  0  0  0  0  0  0  0  0
    5.3180    3.1372    3.7823 C   0  0  0  0  0  0  0  0  0  0  0  0
    3.0732    3.7132    4.7782 C   0  0  0  0  0  0  0  0  0  0  0  0
    4.6761    2.2720    6.0255 C   0  0  0  0  0  0  0  0  0  0  0  0
   -0.4629    1.3793   -2.7210 C   0  0  0  0  0  0  0  0  0  0  0  0
  1 10  1  0  0  0  0
  1 15  1  0  0  0  0
  3 12  1  0  0  0  0
  3 14  1  0  0  0  0
  4  5  1  0  0  0  0
  4  6  1  0  0  0  0
  4  9  1  0  0  0  0
  5  7  1  0  0  0  0
  6  8  1  0  0  0  0
  7  8  1  0  0  0  0
  9 10  1  0  0  0  0
  9 11  2  0  0  0  0
 10 16  2  0  0  0  0
 11 17  1  0  0  0  0
 12 18  1  0  0  0  0
 12 19  1  0  0  0  0
 12 20  1  0  0  0  0
 13  2  1  6  0  0  0
 13 14  1  0  0  0  0
 13 15  1  0  0  0  0
 16 21  1  0  0  0  0
 17 21  2  0  0  0  0
M  END
