417
 OpenBabel10141417493D

 24 26  0  0  1  0  0  0  0  0999 V2000
   -1.5059    0.1098    0.0155 S   0  0  0  0  0  0  0  0  0  0  0  0
    2.1458    2.1104    0.3134 O   0  0  0  0  0  0  0  0  0  0  0  0
   -0.8178    1.0250   -3.3865 O   0  0  0  0  0  0  0  0  0  0  0  0
   -1.3537    3.1838   -3.3575 O   0  0  0  0  0  0  0  0  0  0  0  0
    1.2458   -2.9825    1.0335 O   0  0  0  0  0  0  0  0  0  0  0  0
    1.2612   -1.2568    4.1536 O   0  0  0  0  0  0  0  0  0  0  0  0
    0.6060    1.1639   -1.1718 N   0  0  0  0  0  0  0  0  0  0  0  0
    1.1393   -0.7458    1.4866 N   0  0  0  0  0  0  0  0  0  0  0  0
    0.1100   -0.1759   -0.8199 C   0  0  1  0  0  0  0  0  0  0  0  0
   -1.4866    1.9478   -0.2609 C   0  0  0  0  0  0  0  0  0  0  0  0
   -0.3852    2.2238   -1.3164 C   0  0  2  0  0  0  0  0  0  0  0  0
    1.3626   -0.3343    0.0785 C   0  0  1  0  0  0  0  0  0  0  0  0
    1.5528    1.1777   -0.1947 C   0  0  0  0  0  0  0  0  0  0  0  0
   -2.9017    2.3766   -0.6635 C   0  0  0  0  0  0  0  0  0  0  0  0
   -1.1387    2.5989    1.0916 C   0  0  0  0  0  0  0  0  0  0  0  0
   -0.8710    2.2269   -2.7702 C   0  0  0  0  0  0  0  0  0  0  0  0
    1.1143   -2.0730    1.8503 C   0  0  0  0  0  0  0  0  0  0  0  0
    0.8150   -2.3317    3.3246 C   0  0  0  0  0  0  0  0  0  0  0  0
    0.5955   -1.1349    5.3465 C   0  0  0  0  0  0  0  0  0  0  0  0
    0.5741    0.1423    5.9136 C   0  0  0  0  0  0  0  0  0  0  0  0
   -0.0471   -2.1858    6.0049 C   0  0  0  0  0  0  0  0  0  0  0  0
   -0.1226    0.3738    7.1041 C   0  0  0  0  0  0  0  0  0  0  0  0
   -0.7528   -1.9513    7.1867 C   0  0  0  0  0  0  0  0  0  0  0  0
   -0.7919   -0.6727    7.7366 C   0  0  0  0  0  0  0  0  0  0  0  0
  1 10  1  0  0  0  0
  2 13  2  0  0  0  0
  3 16  1  0  0  0  0
  4 16  2  0  0  0  0
  5 17  2  0  0  0  0
  6 18  1  0  0  0  0
  6 19  1  0  0  0  0
  7  9  1  0  0  0  0
  7 11  1  0  0  0  0
  7 13  1  0  0  0  0
  8 17  1  0  0  0  0
  9  1  1  1  0  0  0
  9 12  1  0  0  0  0
 10 11  1  0  0  0  0
 10 14  1  0  0  0  0
 10 15  1  0  0  0  0
 11 16  1  6  0  0  0
 12 13  1  0  0  0  0
 12  8  1  1  0  0  0
 17 18  1  0  0  0  0
 19 20  2  0  0  0  0
 19 21  1  0  0  0  0
 20 22  1  0  0  0  0
 21 23  2  0  0  0  0
 22 24  2  0  0  0  0
 23 24  1  0  0  0  0
M  END
