
 OpenBabel10141417503D

  9  8  0  0  1  0  0  0  0  0999 V2000
    0.9514    0.1027    0.2251 C   0  0  3  0  0  0  0  0  0  0  0  0
    0.3499    0.3670   -1.1628 C   0  0  0  0  0  0  0  0  0  0  0  0
    0.4527    1.1509    1.2673 C   0  0  0  0  0  0  0  0  0  0  0  0
   -0.7831   -0.3315   -1.4058 O   0  0  0  0  0  0  0  0  0  0  0  0
    0.7034   -1.3136    0.6154 N   0  0  0  0  0  0  0  0  0  0  0  0
    1.2153    0.7711    2.9186 S   0  0  0  0  0  0  0  0  0  0  0  0
    0.7659    1.1644   -1.9882 O   0  0  0  0  0  0  0  0  0  0  0  0
    0.8939    2.5743    0.8933 C   0  0  0  0  0  0  0  0  0  0  0  0
   -1.0703    1.1206    1.4713 C   0  0  0  0  0  0  0  0  0  0  0  0
  1  5  1  0  0  0  0
  2  1  1  0  0  0  0
  3  1  1  0  0  0  0
  3  9  1  0  0  0  0
  4  2  1  0  0  0  0
  6  3  1  0  0  0  0
  7  2  2  0  0  0  0
  8  3  1  0  0  0  0
M  END
