
 OpenBabel10141417483D

 21 23  0  0  1  0  0  0  0  0999 V2000
   -1.3412    0.3151   -1.2878 C   0  0  2  0  0  0  0  0  0  0  0  0
    0.1625    0.1813   -0.9624 C   0  0  0  0  0  0  0  0  0  0  0  0
   -2.0490   -1.0674   -1.1995 C   0  0  2  0  0  0  0  0  0  0  0  0
   -1.5802    0.9319   -2.6849 C   0  0  0  0  0  0  0  0  0  0  0  0
   -1.9718    1.2524   -0.2163 C   0  0  0  0  0  0  0  0  0  0  0  0
    1.0837    1.1640   -1.3768 C   0  0  0  0  0  0  0  0  0  0  0  0
    0.6399   -0.8911   -0.1733 C   0  0  0  0  0  0  0  0  0  0  0  0
   -1.7771   -1.6359    0.2161 C   0  0  1  0  0  0  0  0  0  0  0  0
   -2.8105    0.5167    0.8360 C   0  0  0  0  0  0  0  0  0  0  0  0
    2.4351    1.0536   -1.0554 C   0  0  0  0  0  0  0  0  0  0  0  0
   -0.2790   -1.9721    0.3544 C   0  0  0  0  0  0  0  0  0  0  0  0
    2.0114   -0.9923    0.1194 C   0  0  0  0  0  0  0  0  0  0  0  0
   -2.1580   -0.7017    1.3169 N   0  0  0  0  0  0  0  0  0  0  0  0
    2.9067   -0.0225   -0.3224 C   0  0  0  0  0  0  0  0  0  0  0  0
    3.3361    2.0023   -1.4424 O   0  0  0  0  0  0  0  0  0  0  0  0
   -2.9407   -1.3937    2.3550 C   0  0  0  0  0  0  0  0  0  0  0  0
   -3.3340   -0.5021    3.5081 C   0  0  0  0  0  0  0  0  0  0  0  0
   -1.6798   -2.0521   -2.3228 C   0  0  0  0  0  0  0  0  0  0  0  0
   -4.5739   -0.2308    3.9591 C   0  0  0  0  0  0  0  0  0  0  0  0
   -5.8474   -0.8093    3.4041 C   0  0  0  0  0  0  0  0  0  0  0  0
   -4.7903    0.7313    5.1011 C   0  0  0  0  0  0  0  0  0  0  0  0
  1  2  1  0  0  0  0
  1  3  1  0  0  0  0
  1  4  1  6  0  0  0
  1  5  1  0  0  0  0
  2  6  2  0  0  0  0
  2  7  1  0  0  0  0
  3  8  1  0  0  0  0
  3 18  1  6  0  0  0
  5  9  1  0  0  0  0
  6 10  1  0  0  0  0
  7 11  1  0  0  0  0
  7 12  2  0  0  0  0
  8 13  1  1  0  0  0
  8 11  1  0  0  0  0
  9 13  1  0  0  0  0
 10 14  2  0  0  0  0
 10 15  1  0  0  0  0
 12 14  1  0  0  0  0
 13 16  1  0  0  0  0
 16 17  1  0  0  0  0
 17 19  2  0  0  0  0
 19 20  1  0  0  0  0
 19 21  1  0  0  0  0
M  END
