738
 OpenBabel10141417513D

 25 26  0  0  0  0  0  0  0  0999 V2000
    1.6157    1.1419   -0.6045 O   0  0  0  0  0  0  0  0  0  0  0  0
   -3.4615    1.8527    2.3229 O   0  0  0  0  0  0  0  0  0  0  0  0
    6.7154    0.5643   -4.6132 N   0  0  0  0  0  0  0  0  0  0  0  0
   -8.5409    4.0126    5.8081 N   0  0  0  0  0  0  0  0  0  0  0  0
    6.7489    2.8196   -4.1992 N   0  0  0  0  0  0  0  0  0  0  0  0
   -8.7364    5.0731    3.7758 N   0  0  0  0  0  0  0  0  0  0  0  0
   -1.9603    2.5394   -0.2994 C   0  0  0  0  0  0  0  0  0  0  0  0
   -0.7875    1.5427   -0.3821 C   0  0  0  0  0  0  0  0  0  0  0  0
   -3.3515    1.8858   -0.1625 C   0  0  0  0  0  0  0  0  0  0  0  0
    0.6169    2.1855   -0.5625 C   0  0  0  0  0  0  0  0  0  0  0  0
   -3.5935    1.0755    1.1218 C   0  0  0  0  0  0  0  0  0  0  0  0
    2.7801    1.3611   -1.3004 C   0  0  0  0  0  0  0  0  0  0  0  0
   -4.6271    2.3726    2.8299 C   0  0  0  0  0  0  0  0  0  0  0  0
    3.3728    0.2177   -1.8474 C   0  0  0  0  0  0  0  0  0  0  0  0
   -4.6939    2.5811    4.2132 C   0  0  0  0  0  0  0  0  0  0  0  0
    3.4321    2.5821   -1.4790 C   0  0  0  0  0  0  0  0  0  0  0  0
   -5.7140    2.7442    2.0419 C   0  0  0  0  0  0  0  0  0  0  0  0
    5.1087    1.5338   -2.9401 C   0  0  0  0  0  0  0  0  0  0  0  0
   -6.9214    3.5197    3.9869 C   0  0  0  0  0  0  0  0  0  0  0  0
    4.5141    0.2955   -2.6638 C   0  0  0  0  0  0  0  0  0  0  0  0
   -5.8537    3.1222    4.7974 C   0  0  0  0  0  0  0  0  0  0  0  0
    4.5802    2.6661   -2.3009 C   0  0  0  0  0  0  0  0  0  0  0  0
   -6.8469    3.3259    2.6086 C   0  0  0  0  0  0  0  0  0  0  0  0
    6.2307    1.6484   -3.9370 C   0  0  0  0  0  0  0  0  0  0  0  0
   -8.1117    4.2346    4.5318 C   0  0  0  0  0  0  0  0  0  0  0  0
  1 10  1  0  0  0  0
  1 12  1  0  0  0  0
  2 11  1  0  0  0  0
  2 13  1  0  0  0  0
  3 24  1  0  0  0  0
  4 25  1  0  0  0  0
  5 24  2  0  0  0  0
  6 25  2  0  0  0  0
  7  8  1  0  0  0  0
  7  9  1  0  0  0  0
  8 10  1  0  0  0  0
  9 11  1  0  0  0  0
 12 14  2  0  0  0  0
 12 16  1  0  0  0  0
 13 15  2  0  0  0  0
 13 17  1  0  0  0  0
 14 20  1  0  0  0  0
 15 21  1  0  0  0  0
 16 22  2  0  0  0  0
 17 23  2  0  0  0  0
 18 20  2  0  0  0  0
 18 22  1  0  0  0  0
 18 24  1  0  0  0  0
 19 21  2  0  0  0  0
 19 23  1  0  0  0  0
 19 25  1  0  0  0  0
M  END
