
 OpenBabel10141417483D

 11 10  0  0  0  0  0  0  0  0999 V2000
    2.5384   -1.1900    0.4775 F   0  0  0  0  0  0  0  0  0  0  0  0
    2.3624    0.0651    0.0039 C   0  0  0  0  0  0  0  0  0  0  0  0
    2.9944    1.1143    0.8825 C   0  0  0  0  0  0  0  0  0  0  0  0
    2.4359    0.9497    2.2749 C   0  0  0  0  0  0  0  0  0  0  0  0
    2.9605    1.8709    3.1230 F   0  0  0  0  0  0  0  0  0  0  0  0
    2.7277   -0.2651    2.8027 F   0  0  0  0  0  0  0  0  0  0  0  0
    2.7396    2.3651    0.3994 F   0  0  0  0  0  0  0  0  0  0  0  0
    2.8990    0.0848   -1.2437 F   0  0  0  0  0  0  0  0  0  0  0  0
    1.0312    0.2523   -0.1452 F   0  0  0  0  0  0  0  0  0  0  0  0
    4.3524    0.9875    0.8928 F   0  0  0  0  0  0  0  0  0  0  0  0
    1.0970    1.0932    2.3209 F   0  0  0  0  0  0  0  0  0  0  0  0
  1  2  1  0  0  0  0
  2  8  1  0  0  0  0
  2  9  1  0  0  0  0
  2  3  1  0  0  0  0
  3  7  1  0  0  0  0
  3  4  1  0  0  0  0
  3 10  1  0  0  0  0
  4  6  1  0  0  0  0
  4  5  1  0  0  0  0
  4 11  1  0  0  0  0
M  END
