790
 OpenBabel10141419013D

 26 27  0  0  1  0  0  0  0  0999 V2000
   -3.3058   -0.7067   -0.5506 O   0  0  0  0  0  0  0  0  0  0  0  0
   -5.0045    1.3885   -0.0844 O   0  0  0  0  0  0  0  0  0  0  0  0
   -6.1380    1.4221    1.8534 O   0  0  0  0  0  0  0  0  0  0  0  0
    1.6652   -2.9240    1.1794 O   0  0  0  0  0  0  0  0  0  0  0  0
    3.1575   -1.2480    1.6551 O   0  0  0  0  0  0  0  0  0  0  0  0
   -2.6556    0.5918    1.1494 N   0  0  0  0  0  0  0  0  0  0  0  0
   -0.0266   -0.7640    0.4260 N   0  0  0  0  0  0  0  0  0  0  0  0
   -2.1475    0.9736    3.3915 C   0  0  2  0  0  0  0  0  0  0  0  0
   -1.7444    1.3849    1.9744 C   0  0  2  0  0  0  0  0  0  0  0  0
   -3.6723    0.8580    3.2958 C   0  0  0  0  0  0  0  0  0  0  0  0
   -3.9308    0.3707    1.8617 C   0  0  1  0  0  0  0  0  0  0  0  0
   -1.6517    1.9110    4.4863 C   0  0  0  0  0  0  0  0  0  0  0  0
   -1.9187    2.8871    1.6971 C   0  0  0  0  0  0  0  0  0  0  0  0
   -1.8872    3.3841    4.1711 C   0  0  0  0  0  0  0  0  0  0  0  0
   -1.3253    3.7556    2.8028 C   0  0  0  0  0  0  0  0  0  0  0  0
   -2.3666   -0.1415    0.0213 C   0  0  0  0  0  0  0  0  0  0  0  0
   -5.1239    1.1218    1.2368 C   0  0  0  0  0  0  0  0  0  0  0  0
   -0.9382   -0.1630   -0.5678 C   0  0  2  0  0  0  0  0  0  0  0  0
   -0.9755   -0.9567   -1.8830 C   0  0  0  0  0  0  0  0  0  0  0  0
    1.3840   -0.8752   -0.0103 C   0  0  1  0  0  0  0  0  0  0  0  0
    2.0840    0.4560   -0.3681 C   0  0  0  0  0  0  0  0  0  0  0  0
    2.1859   -1.6601    1.0492 C   0  0  0  0  0  0  0  0  0  0  0  0
    2.0977    1.5373    0.7203 C   0  0  0  0  0  0  0  0  0  0  0  0
    2.8328    2.7917    0.2630 C   0  0  0  0  0  0  0  0  0  0  0  0
    2.3503   -3.7589    2.1253 C   0  0  0  0  0  0  0  0  0  0  0  0
    3.6055   -4.3543    1.5106 C   0  0  0  0  0  0  0  0  0  0  0  0
  1 16  2  0  0  0  0
  2 17  1  0  0  0  0
  3 17  2  0  0  0  0
  4 22  1  0  0  0  0
  4 25  1  0  0  0  0
  5 22  2  0  0  0  0
  6 11  1  0  0  0  0
  6 16  1  0  0  0  0
  8  9  1  0  0  0  0
  8 10  1  6  0  0  0
  8 12  1  0  0  0  0
  9  6  1  6  0  0  0
  9 13  1  0  0  0  0
 10 11  1  0  0  0  0
 11 17  1  6  0  0  0
 12 14  1  0  0  0  0
 13 15  1  0  0  0  0
 14 15  1  0  0  0  0
 16 18  1  0  0  0  0
 18  7  1  1  0  0  0
 18 19  1  0  0  0  0
 20  7  1  1  0  0  0
 20 21  1  0  0  0  0
 20 22  1  0  0  0  0
 21 23  1  0  0  0  0
 23 24  1  0  0  0  0
 25 26  1  0  0  0  0
M  END
