454
 OpenBabel10141417503D

 18 19  0  0  0  0  0  0  0  0999 V2000
    0.7283   -0.7369   -0.6660 O   0  0  0  0  0  0  0  0  0  0  0  0
    1.0236    1.5284   -0.8374 O   0  0  0  0  0  0  0  0  0  0  0  0
   -2.0766    1.0963    1.9786 N   0  0  0  0  0  0  0  0  0  0  0  0
   -1.2603    0.6096   -0.8794 C   0  0  0  0  0  0  0  0  0  0  0  0
   -1.7311    1.9956   -0.3517 C   0  0  0  0  0  0  0  0  0  0  0  0
   -1.8930   -0.4694    0.0425 C   0  0  0  0  0  0  0  0  0  0  0  0
   -1.4992    2.1644    1.1580 C   0  0  0  0  0  0  0  0  0  0  0  0
   -1.6355   -0.2228    1.5268 C   0  0  0  0  0  0  0  0  0  0  0  0
   -1.6767    0.4264   -2.3622 C   0  0  0  0  0  0  0  0  0  0  0  0
    0.2885    0.5528   -0.7813 C   0  0  0  0  0  0  0  0  0  0  0  0
   -3.5315    1.1974    2.0811 C   0  0  0  0  0  0  0  0  0  0  0  0
   -2.4993   -0.6359   -2.7857 C   0  0  0  0  0  0  0  0  0  0  0  0
   -1.2214    1.3168   -3.3539 C   0  0  0  0  0  0  0  0  0  0  0  0
   -2.8492   -0.8062   -4.1277 C   0  0  0  0  0  0  0  0  0  0  0  0
   -1.5697    1.1438   -4.7000 C   0  0  0  0  0  0  0  0  0  0  0  0
   -2.3814    0.0814   -5.0867 C   0  0  0  0  0  0  0  0  0  0  0  0
    2.1482   -0.9163   -0.5594 C   0  0  0  0  0  0  0  0  0  0  0  0
    2.7919   -0.8590   -1.9312 C   0  0  0  0  0  0  0  0  0  0  0  0
  1 10  1  0  0  0  0
  1 17  1  0  0  0  0
  2 10  2  0  0  0  0
  3  7  1  0  0  0  0
  3  8  1  0  0  0  0
  3 11  1  0  0  0  0
  4  5  1  0  0  0  0
  4  6  1  0  0  0  0
  4  9  1  0  0  0  0
  4 10  1  0  0  0  0
  5  7  1  0  0  0  0
  6  8  1  0  0  0  0
  9 12  2  0  0  0  0
  9 13  1  0  0  0  0
 12 14  1  0  0  0  0
 13 15  2  0  0  0  0
 14 16  2  0  0  0  0
 15 16  1  0  0  0  0
 17 18  1  0  0  0  0
M  END
