692
 OpenBabel10141417523D

 21 23  0  0  0  0  0  0  0  0999 V2000
    4.4024    2.3360   -1.8572 O   0  0  0  0  0  0  0  0  0  0  0  0
    4.9361   -2.3285   -0.4783 N   0  0  0  0  0  0  0  0  0  0  0  0
    6.1750   -2.6711   -3.0744 N   0  0  0  0  0  0  0  0  0  0  0  0
    8.0570   -3.4214   -2.0089 N   0  0  0  0  0  0  0  0  0  0  0  0
    6.4182   -2.2309   -0.5785 C   0  0  0  0  0  0  0  0  0  0  0  0
    6.9131   -2.7934   -1.9115 C   0  0  0  0  0  0  0  0  0  0  0  0
    6.7254   -3.6065   -4.0248 C   0  0  0  0  0  0  0  0  0  0  0  0
    8.1296   -3.8183   -3.4478 C   0  0  0  0  0  0  0  0  0  0  0  0
    4.3984   -3.6464   -0.3818 C   0  0  0  0  0  0  0  0  0  0  0  0
    4.2203   -1.0975   -0.4950 C   0  0  0  0  0  0  0  0  0  0  0  0
    5.1429   -4.7381    0.1003 C   0  0  0  0  0  0  0  0  0  0  0  0
    3.0887   -3.9324   -0.8080 C   0  0  0  0  0  0  0  0  0  0  0  0
    4.6810    0.0374   -1.1912 C   0  0  0  0  0  0  0  0  0  0  0  0
    2.9985   -0.9598    0.1927 C   0  0  0  0  0  0  0  0  0  0  0  0
    3.3112   -6.2899   -0.2662 C   0  0  0  0  0  0  0  0  0  0  0  0
    4.6144   -6.0350    0.1555 C   0  0  0  0  0  0  0  0  0  0  0  0
    2.5447   -5.2235   -0.7343 C   0  0  0  0  0  0  0  0  0  0  0  0
    3.9499    1.2289   -1.1990 C   0  0  0  0  0  0  0  0  0  0  0  0
    2.2535    0.2262    0.1559 C   0  0  0  0  0  0  0  0  0  0  0  0
    2.7335    1.3263   -0.5430 C   0  0  0  0  0  0  0  0  0  0  0  0
    2.7382   -7.6705   -0.1582 C   0  0  0  0  0  0  0  0  0  0  0  0
  1 18  1  0  0  0  0
  2  5  1  0  0  0  0
  2  9  1  0  0  0  0
  2 10  1  0  0  0  0
  3  6  1  0  0  0  0
  3  7  1  0  0  0  0
  4  6  2  0  0  0  0
  4  8  1  0  0  0  0
  5  6  1  0  0  0  0
  7  8  1  0  0  0  0
  9 11  2  0  0  0  0
  9 12  1  0  0  0  0
 10 13  2  0  0  0  0
 10 14  1  0  0  0  0
 11 16  1  0  0  0  0
 12 17  2  0  0  0  0
 13 18  1  0  0  0  0
 14 19  2  0  0  0  0
 15 16  2  0  0  0  0
 15 17  1  0  0  0  0
 15 21  1  0  0  0  0
 18 20  2  0  0  0  0
 19 20  1  0  0  0  0
M  END
