26934
 OpenBabel10141417483D

 11 11  0  0  1  0  0  0  0  0999 V2000
    2.0969   -0.3308    0.9563 O   0  0  0  0  0  0  0  0  0  0  0  0
   -0.2197    0.5919   -0.3959 N   0  0  0  0  0  0  0  0  0  0  0  0
    1.5514   -1.1353   -0.1057 C   0  0  2  0  0  0  0  0  0  0  0  0
    0.0233   -0.8534   -0.2022 C   0  0  1  0  0  0  0  0  0  0  0  0
    1.9113   -2.5830    0.1644 C   0  0  0  0  0  0  0  0  0  0  0  0
   -0.6539   -1.6104   -1.3409 C   0  0  0  0  0  0  0  0  0  0  0  0
    1.5012   -3.2216    1.3460 C   0  0  0  0  0  0  0  0  0  0  0  0
    2.6841   -3.3041   -0.7572 C   0  0  0  0  0  0  0  0  0  0  0  0
    1.8482   -4.5505    1.5938 C   0  0  0  0  0  0  0  0  0  0  0  0
    3.0323   -4.6330   -0.5064 C   0  0  0  0  0  0  0  0  0  0  0  0
    2.6130   -5.2556    0.6682 C   0  0  0  0  0  0  0  0  0  0  0  0
  3  5  1  1  0  0  0
  3  4  1  0  0  0  0
  3  1  1  0  0  0  0
  4  6  1  1  0  0  0
  4  2  1  0  0  0  0
  5  7  2  0  0  0  0
  5  8  1  0  0  0  0
  7  9  1  0  0  0  0
  8 10  2  0  0  0  0
  9 11  2  0  0  0  0
 10 11  1  0  0  0  0
M  END
