1619
 OpenBabel10141417493D

 20 23  0  0  1  0  0  0  0  0999 V2000
   -3.5940    0.0079   -0.3421 N   0  0  0  0  0  0  0  0  0  0  0  0
   -0.1260   -1.8088   -0.1098 C   0  0  3  0  0  0  0  0  0  0  0  0
   -1.2466   -0.7881   -0.0767 C   0  0  0  0  0  0  0  0  0  0  0  0
   -0.7989    0.4768    0.0154 C   0  0  0  0  0  0  0  0  0  0  0  0
   -2.6976   -1.1446   -0.0951 C   0  0  0  0  0  0  0  0  0  0  0  0
    1.0768   -0.8904   -0.0333 C   0  0  0  0  0  0  0  0  0  0  0  0
   -1.6940    1.6565    0.1201 C   0  0  0  0  0  0  0  0  0  0  0  0
    0.6525    0.4479    0.0434 C   0  0  0  0  0  0  0  0  0  0  0  0
   -3.1444    1.2017    0.4063 C   0  0  0  0  0  0  0  0  0  0  0  0
   -0.1503   -2.7102   -1.3289 C   0  0  0  0  0  0  0  0  0  0  0  0
    2.4243   -1.2182   -0.0176 C   0  0  0  0  0  0  0  0  0  0  0  0
    1.5694    1.4804    0.1301 C   0  0  0  0  0  0  0  0  0  0  0  0
   -3.7149    0.2839   -1.7742 C   0  0  0  0  0  0  0  0  0  0  0  0
   -0.0522   -2.1946   -2.6325 C   0  0  0  0  0  0  0  0  0  0  0  0
   -0.2893   -4.0979   -1.1667 C   0  0  0  0  0  0  0  0  0  0  0  0
    3.3535   -0.1794    0.0686 C   0  0  0  0  0  0  0  0  0  0  0  0
    2.9299    1.1584    0.1417 C   0  0  0  0  0  0  0  0  0  0  0  0
   -0.0882   -3.0432   -3.7401 C   0  0  0  0  0  0  0  0  0  0  0  0
   -0.3256   -4.9451   -2.2761 C   0  0  0  0  0  0  0  0  0  0  0  0
   -0.2249   -4.4177   -3.5616 C   0  0  0  0  0  0  0  0  0  0  0  0
  1  5  1  0  0  0  0
  1  9  1  0  0  0  0
  1 13  1  0  0  0  0
  2  3  1  0  0  0  0
  2  6  1  0  0  0  0
  2 10  1  0  0  0  0
  3  4  2  0  0  0  0
  3  5  1  0  0  0  0
  4  7  1  0  0  0  0
  4  8  1  0  0  0  0
  6  8  1  0  0  0  0
  6 11  2  0  0  0  0
  7  9  1  0  0  0  0
  8 12  2  0  0  0  0
 10 14  2  0  0  0  0
 10 15  1  0  0  0  0
 11 16  1  0  0  0  0
 12 17  1  0  0  0  0
 14 18  1  0  0  0  0
 15 19  2  0  0  0  0
 16 17  2  0  0  0  0
 18 20  2  0  0  0  0
 19 20  1  0  0  0  0
M  END
