1174
 OpenBabel10141417513D

 17 18  0  0  0  0  0  0  0  0999 V2000
    1.9613   -0.3848   -1.4304 O   0  0  0  0  0  0  0  0  0  0  0  0
    5.3982    1.6959    0.9178 O   0  0  0  0  0  0  0  0  0  0  0  0
    3.2235   -1.8311    2.5352 O   0  0  0  0  0  0  0  0  0  0  0  0
    2.2973   -0.8142    0.7488 N   0  0  0  0  0  0  0  0  0  0  0  0
    4.0867    0.1402    1.8638 N   0  0  0  0  0  0  0  0  0  0  0  0
    3.2468    1.2725   -0.1661 C   0  0  0  0  0  0  0  0  0  0  0  0
    3.8915    1.7271   -1.5080 C   0  0  0  0  0  0  0  0  0  0  0  0
    2.2576    2.3888    0.2751 C   0  0  0  0  0  0  0  0  0  0  0  0
    2.4659   -0.0363   -0.3643 C   0  0  0  0  0  0  0  0  0  0  0  0
    4.3468    1.0578    0.8816 C   0  0  0  0  0  0  0  0  0  0  0  0
    4.9020    0.7459   -2.1020 C   0  0  0  0  0  0  0  0  0  0  0  0
    1.0379    2.5640   -0.4112 C   0  0  0  0  0  0  0  0  0  0  0  0
    2.5450    3.2803    1.3251 C   0  0  0  0  0  0  0  0  0  0  0  0
    3.1817   -0.8675    1.7758 C   0  0  0  0  0  0  0  0  0  0  0  0
    0.1345    3.5637   -0.0430 C   0  0  0  0  0  0  0  0  0  0  0  0
    1.6373    4.2783    1.6934 C   0  0  0  0  0  0  0  0  0  0  0  0
    0.4320    4.4175    1.0131 C   0  0  0  0  0  0  0  0  0  0  0  0
  1  9  2  0  0  0  0
  2 10  2  0  0  0  0
  3 14  2  0  0  0  0
  4  9  1  0  0  0  0
  4 14  1  0  0  0  0
  5 10  1  0  0  0  0
  5 14  1  0  0  0  0
  6  7  1  0  0  0  0
  6  8  1  0  0  0  0
  6  9  1  0  0  0  0
  6 10  1  0  0  0  0
  7 11  1  0  0  0  0
  8 12  2  0  0  0  0
  8 13  1  0  0  0  0
 12 15  1  0  0  0  0
 13 16  2  0  0  0  0
 15 17  2  0  0  0  0
 16 17  1  0  0  0  0
M  END
