
 OpenBabel10141417533D

  7  7  0  0  0  0  0  0  0  0999 V2000
    0.9432   -0.0633    0.2232 O   0  0  0  0  0  0  0  0  0  0  0  0
    2.2999    0.0025    0.1035 C   0  0  0  0  0  0  0  0  0  0  0  0
    2.9638    1.2242    0.0392 C   0  0  0  0  0  0  0  0  0  0  0  0
    4.3535    1.2431   -0.0902 C   0  0  0  0  0  0  0  0  0  0  0  0
    5.0671    0.0446   -0.1538 C   0  0  0  0  0  0  0  0  0  0  0  0
    4.3921   -1.1744   -0.0850 C   0  0  0  0  0  0  0  0  0  0  0  0
    3.0037   -1.1956    0.0451 C   0  0  0  0  0  0  0  0  0  0  0  0
  1  2  1  0  0  0  0
  2  3  2  0  0  0  0
  2  7  1  0  0  0  0
  3  4  1  0  0  0  0
  4  5  2  0  0  0  0
  5  6  1  0  0  0  0
  6  7  2  0  0  0  0
M  END
