1438
 OpenBabel10141417513D

 16 17  0  0  0  0  0  0  0  0999 V2000
    1.0590    1.0107    0.0633 N   0  0  0  0  0  0  0  0  0  0  0  0
   -0.7673   -2.1512   -0.5915 N   0  0  0  0  0  0  0  0  0  0  0  0
   -1.3838   -2.6663    0.3672 N   0  0  0  0  0  0  0  0  0  0  0  0
    1.8912   -1.1500   -0.1448 N   0  0  0  0  0  0  0  0  0  0  0  0
    0.3472    3.2193    0.2633 N   0  0  0  0  0  0  0  0  0  0  0  0
   -0.5204   -0.7866   -0.3423 C   0  0  0  0  0  0  0  0  0  0  0  0
    0.7784   -0.2980   -0.1278 C   0  0  0  0  0  0  0  0  0  0  0  0
   -1.5616    0.1435   -0.3482 C   0  0  0  0  0  0  0  0  0  0  0  0
   -1.2842    1.4914   -0.1419 C   0  0  0  0  0  0  0  0  0  0  0  0
    0.0337    1.8792    0.0471 C   0  0  0  0  0  0  0  0  0  0  0  0
   -1.7016   -4.0165    0.1142 C   0  0  0  0  0  0  0  0  0  0  0  0
   -2.9819   -4.4742    0.4484 C   0  0  0  0  0  0  0  0  0  0  0  0
   -0.7797   -4.9327   -0.4135 C   0  0  0  0  0  0  0  0  0  0  0  0
   -3.3428   -5.8085    0.2432 C   0  0  0  0  0  0  0  0  0  0  0  0
   -1.1373   -6.2677   -0.6206 C   0  0  0  0  0  0  0  0  0  0  0  0
   -2.4195   -6.7041   -0.2927 C   0  0  0  0  0  0  0  0  0  0  0  0
  1  7  1  0  0  0  0
  1 10  2  0  0  0  0
  2  3  2  0  0  0  0
  2  6  1  0  0  0  0
  3 11  1  0  0  0  0
  4  7  1  0  0  0  0
  5 10  1  0  0  0  0
  6  7  2  0  0  0  0
  6  8  1  0  0  0  0
  8  9  2  0  0  0  0
  9 10  1  0  0  0  0
 11 12  2  0  0  0  0
 11 13  1  0  0  0  0
 12 14  1  0  0  0  0
 13 15  2  0  0  0  0
 14 16  2  0  0  0  0
 15 16  1  0  0  0  0
M  END
