1579
 OpenBabel10141417483D

 14 15  0  0  1  0  0  0  0  0999 V2000
    0.9602    1.0513    0.0716 O   0  0  0  0  0  0  0  0  0  0  0  0
   -0.9618   -1.1828   -0.1469 N   0  0  0  0  0  0  0  0  0  0  0  0
    0.5121   -1.3779   -0.0862 C   0  0  3  0  0  0  0  0  0  0  0  0
    1.3709   -0.2416    0.5831 C   0  0  3  0  0  0  0  0  0  0  0  0
   -1.2421    0.2040   -0.5737 C   0  0  0  0  0  0  0  0  0  0  0  0
   -0.4490    1.2592    0.2090 C   0  0  0  0  0  0  0  0  0  0  0  0
    0.9499   -2.8013    0.2745 C   0  0  0  0  0  0  0  0  0  0  0  0
    1.6220   -0.1152    2.0799 C   0  0  0  0  0  0  0  0  0  0  0  0
   -1.7063   -1.5189    1.0574 C   0  0  0  0  0  0  0  0  0  0  0  0
    1.0507   -0.9220    3.0684 C   0  0  0  0  0  0  0  0  0  0  0  0
    2.5271    0.8816    2.5028 C   0  0  0  0  0  0  0  0  0  0  0  0
    1.3620   -0.7402    4.4215 C   0  0  0  0  0  0  0  0  0  0  0  0
    2.8434    1.0634    3.8506 C   0  0  0  0  0  0  0  0  0  0  0  0
    2.2579    0.2495    4.8127 C   0  0  0  0  0  0  0  0  0  0  0  0
  1  4  1  0  0  0  0
  1  6  1  0  0  0  0
  2  3  1  0  0  0  0
  2  5  1  0  0  0  0
  2  9  1  0  0  0  0
  3  4  1  0  0  0  0
  3  7  1  0  0  0  0
  4  8  1  0  0  0  0
  5  6  1  0  0  0  0
  8 10  2  0  0  0  0
  8 11  1  0  0  0  0
 10 12  1  0  0  0  0
 11 13  2  0  0  0  0
 12 14  2  0  0  0  0
 13 14  1  0  0  0  0
M  END
