981
 OpenBabel10141417483D

 20 22  0  0  1  0  0  0  0  0999 V2000
   -0.7614    0.1592   -0.7453 O   0  0  0  0  0  0  0  0  0  0  0  0
   -0.6335   -1.4725   -2.4167 O   0  0  0  0  0  0  0  0  0  0  0  0
   -0.4760    6.9066   -2.4316 N   0  0  0  0  0  0  0  0  0  0  0  0
   -0.5472    4.7763   -3.8878 N   0  0  0  0  0  0  0  0  0  0  0  0
   -1.1109   -2.0696   -0.2989 N   0  0  0  0  0  0  0  0  0  0  0  0
    0.5990    4.8580   -1.7103 C   0  0  1  0  0  0  0  0  0  0  0  0
    0.1744    5.6936   -2.9754 C   0  0  2  0  0  0  0  0  0  0  0  0
   -0.0393    5.6053   -0.5409 C   0  0  0  0  0  0  0  0  0  0  0  0
   -0.0250    3.5246   -1.9710 C   0  0  0  0  0  0  0  0  0  0  0  0
   -0.0683    7.0381   -1.0336 C   0  0  0  0  0  0  0  0  0  0  0  0
   -0.6697    3.5501   -3.2082 C   0  0  0  0  0  0  0  0  0  0  0  0
    2.1227    4.7630   -1.5702 C   0  0  0  0  0  0  0  0  0  0  0  0
   -0.1561    8.1026   -3.1992 C   0  0  0  0  0  0  0  0  0  0  0  0
   -0.0445    2.3983   -1.1548 C   0  0  0  0  0  0  0  0  0  0  0  0
   -1.7715    5.2529   -4.5140 C   0  0  0  0  0  0  0  0  0  0  0  0
   -1.3327    2.4179   -3.6593 C   0  0  0  0  0  0  0  0  0  0  0  0
   -0.7086    1.2640   -1.6211 C   0  0  0  0  0  0  0  0  0  0  0  0
   -1.3660    1.2752   -2.8569 C   0  0  0  0  0  0  0  0  0  0  0  0
   -0.8108   -1.1360   -1.2488 C   0  0  0  0  0  0  0  0  0  0  0  0
   -1.3083   -1.7953    1.0985 C   0  0  0  0  0  0  0  0  0  0  0  0
  1 17  1  0  0  0  0
  1 19  1  0  0  0  0
  2 19  2  0  0  0  0
  3 10  1  0  0  0  0
  3 13  1  0  0  0  0
  4  7  1  0  0  0  0
  4 11  1  0  0  0  0
  4 15  1  0  0  0  0
  5 19  1  0  0  0  0
  5 20  1  0  0  0  0
  6  7  1  0  0  0  0
  6  8  1  0  0  0  0
  6  9  1  0  0  0  0
  6 12  1  1  0  0  0
  7  3  1  1  0  0  0
  8 10  1  0  0  0  0
  9 11  2  0  0  0  0
  9 14  1  0  0  0  0
 11 16  1  0  0  0  0
 14 17  2  0  0  0  0
 16 18  2  0  0  0  0
 17 18  1  0  0  0  0
M  END
