1085
 OpenBabel10141417513D

 15 16  0  0  1  0  0  0  0  0999 V2000
   -0.5267   -1.6508   -0.9085 O   0  0  0  0  0  0  0  0  0  0  0  0
   -1.2408    0.0060   -2.3129 O   0  0  0  0  0  0  0  0  0  0  0  0
   -0.8453   -1.4757    3.5556 N   0  0  0  0  0  0  0  0  0  0  0  0
    1.0069   -1.6543    4.7587 N   0  0  0  0  0  0  0  0  0  0  0  0
    0.8249   -0.3699    0.5132 C   0  0  1  0  0  0  0  0  0  0  0  0
    0.6385    0.3908   -0.8014 C   0  0  2  0  0  0  0  0  0  0  0  0
   -0.1350    0.0607    1.6451 C   0  0  0  0  0  0  0  0  0  0  0  0
    0.5304   -1.7867    0.0434 C   0  0  0  0  0  0  0  0  0  0  0  0
    0.3447    1.8877   -0.7218 C   0  0  0  0  0  0  0  0  0  0  0  0
   -0.4888   -0.3900   -1.4423 C   0  0  0  0  0  0  0  0  0  0  0  0
    0.0949   -0.7086    2.9067 C   0  0  0  0  0  0  0  0  0  0  0  0
    1.4750    2.6768   -0.0767 C   0  0  0  0  0  0  0  0  0  0  0  0
    1.2249   -0.8228    3.6949 C   0  0  0  0  0  0  0  0  0  0  0  0
   -0.2452   -2.0315    4.6506 C   0  0  0  0  0  0  0  0  0  0  0  0
   -2.2232   -1.6862    3.1845 C   0  0  0  0  0  0  0  0  0  0  0  0
  1  8  1  0  0  0  0
  1 10  1  0  0  0  0
  2 10  2  0  0  0  0
  3 11  1  0  0  0  0
  3 14  1  0  0  0  0
  3 15  1  0  0  0  0
  4 13  1  0  0  0  0
  4 14  2  0  0  0  0
  5  6  1  0  0  0  0
  5  8  1  0  0  0  0
  5  7  1  1  0  0  0
  6 10  1  0  0  0  0
  6  9  1  1  0  0  0
  7 11  1  0  0  0  0
  9 12  1  0  0  0  0
 11 13  2  0  0  0  0
M  END
