337
 OpenBabel10141417553D

 56 59  0  0  1  0  0  0  0  0999 V2000
    3.3577   -7.1544   -3.4827 Cl  0  0  0  0  0  0  0  0  0  0  0  0
    8.4464    1.4274    3.6097 O   0  0  0  0  0  0  0  0  0  0  0  0
    8.2181    0.6479    7.2357 O   0  0  0  0  0  0  0  0  0  0  0  0
    6.5676    3.3314    4.3347 O   0  0  0  0  0  0  0  0  0  0  0  0
    6.4937    0.2883    3.2736 O   0  0  0  0  0  0  0  0  0  0  0  0
    4.1941   -1.5078    0.1482 O   0  0  0  0  0  0  0  0  0  0  0  0
    9.0330   -0.5112    0.9679 O   0  0  0  0  0  0  0  0  0  0  0  0
    4.2546   -4.2495   -4.2170 O   0  0  0  0  0  0  0  0  0  0  0  0
    7.9052    2.4343    0.8858 O   0  0  0  0  0  0  0  0  0  0  0  0
    0.5647    0.3718    0.4570 O   0  0  0  0  0  0  0  0  0  0  0  0
    6.1368   -1.6059    1.3478 O   0  0  0  0  0  0  0  0  0  0  0  0
    1.7213    2.7738    0.1852 O   0  0  0  0  0  0  0  0  0  0  0  0
    6.6174    0.9644   -0.3519 N   0  0  0  0  0  0  0  0  0  0  0  0
    8.2542    1.6513    5.0216 C   0  0  1  0  0  0  0  0  0  0  0  0
    8.5523   -0.9554    3.7832 C   0  0  2  0  0  0  0  0  0  0  0  0
    8.6827    0.4573    5.8964 C   0  0  2  0  0  0  0  0  0  0  0  0
    8.2811   -0.8872    5.2929 C   0  0  0  0  0  0  0  0  0  0  0  0
    7.8863    0.2409    3.0504 C   0  0  2  0  0  0  0  0  0  0  0  0
    6.9162    2.4062    5.3763 C   0  0  2  0  0  0  0  0  0  0  0  0
    5.6851    1.5506    5.7879 C   0  0  0  0  0  0  0  0  0  0  0  0
    4.2921    1.7944    5.1361 C   0  0  2  0  0  0  0  0  0  0  0  0
    8.1420   -2.3497    3.3093 C   0  0  0  0  0  0  0  0  0  0  0  0
    8.2034    0.2081    1.5206 C   0  0  0  0  0  0  0  0  0  0  0  0
    2.6225   -4.3974   -0.8167 C   0  0  1  0  0  0  0  0  0  0  0  0
    6.1074   -0.3732   -0.7433 C   0  0  1  0  0  0  0  0  0  0  0  0
    3.7201   -4.3018   -1.8845 C   0  0  0  0  0  0  0  0  0  0  0  0
    1.7668   -5.6679   -1.0316 C   0  0  0  0  0  0  0  0  0  0  0  0
    3.1535   -4.3940   -3.3091 C   0  0  2  0  0  0  0  0  0  0  0  0
    3.7344    3.2217    5.3474 C   0  0  0  0  0  0  0  0  0  0  0  0
    7.5388    1.2779    0.6745 C   0  0  0  0  0  0  0  0  0  0  0  0
    1.2276   -5.7872   -2.4565 C   0  0  0  0  0  0  0  0  0  0  0  0
    2.3264   -5.6812   -3.5150 C   0  0  2  0  0  0  0  0  0  0  0  0
    7.1021   -1.0767   -1.6613 C   0  0  0  0  0  0  0  0  0  0  0  0
    6.7176    1.8510   -1.5137 C   0  0  0  0  0  0  0  0  0  0  0  0
    3.4512   -1.9538    1.3068 C   0  0  1  0  0  0  0  0  0  0  0  0
    2.0061   -1.3848    1.2295 C   0  0  2  0  0  0  0  0  0  0  0  0
    7.4062   -0.1887   -2.8803 C   0  0  0  0  0  0  0  0  0  0  0  0
    7.7352    1.2646   -2.5023 C   0  0  0  0  0  0  0  0  0  0  0  0
    3.3256    0.7279    5.6881 C   0  0  0  0  0  0  0  0  0  0  0  0
    3.2293   -4.4484    0.5653 C   0  0  0  0  0  0  0  0  0  0  0  0
    3.5514   -3.4781    1.4493 C   0  0  0  0  0  0  0  0  0  0  0  0
    1.9411    0.1028    0.7757 C   0  0  2  0  0  0  0  0  0  0  0  0
    5.5226   -1.2585    0.3622 C   0  0  0  0  0  0  0  0  0  0  0  0
    2.3370    3.4815    4.7981 C   0  0  0  0  0  0  0  0  0  0  0  0
    8.5694   -0.3963    8.1336 C   0  0  0  0  0  0  0  0  0  0  0  0
    7.5473    4.3493    4.1263 C   0  0  0  0  0  0  0  0  0  0  0  0
    2.4313    1.1402    1.8038 C   0  0  0  0  0  0  0  0  0  0  0  0
    2.6604    3.7500    2.1743 C   0  0  2  0  0  0  0  0  0  0  0  0
    1.2463   -1.5983    2.5497 C   0  0  0  0  0  0  0  0  0  0  0  0
    1.9595    3.6840    3.5160 C   0  0  0  0  0  0  0  0  0  0  0  0
    4.1755   -3.9320    2.7546 C   0  0  0  0  0  0  0  0  0  0  0  0
    2.2237    2.5648    1.2974 C   0  0  0  0  0  0  0  0  0  0  0  0
    1.2715    3.5664    5.8761 C   0  0  0  0  0  0  0  0  0  0  0  0
    4.1702    3.9833    2.0925 C   0  0  0  0  0  0  0  0  0  0  0  0
    3.8761   -4.1633   -5.5837 C   0  0  0  0  0  0  0  0  0  0  0  0
    4.6614    4.0779    0.6479 C   0  0  0  0  0  0  0  0  0  0  0  0
  2 18  1  0  0  0  0
  3 45  1  0  0  0  0
  4 46  1  0  0  0  0
  6 35  1  0  0  0  0
  6 43  1  0  0  0  0
  7 23  2  0  0  0  0
  8 55  1  0  0  0  0
  9 30  2  0  0  0  0
 11 43  2  0  0  0  0
 12 52  2  0  0  0  0
 13 30  1  0  0  0  0
 13 34  1  0  0  0  0
 14  2  1  1  0  0  0
 14 16  1  0  0  0  0
 14 19  1  0  0  0  0
 15 17  1  0  0  0  0
 15 18  1  0  0  0  0
 15 22  1  6  0  0  0
 16  3  1  1  0  0  0
 16 17  1  0  0  0  0
 18  5  1  1  0  0  0
 18 23  1  0  0  0  0
 19 20  1  0  0  0  0
 19  4  1  6  0  0  0
 20 21  1  0  0  0  0
 21 29  1  0  0  0  0
 21 39  1  1  0  0  0
 23 30  1  0  0  0  0
 24 26  1  0  0  0  0
 24 27  1  0  0  0  0
 24 40  1  1  0  0  0
 25 13  1  1  0  0  0
 25 33  1  0  0  0  0
 25 43  1  0  0  0  0
 26 28  1  0  0  0  0
 27 31  1  0  0  0  0
 28  8  1  6  0  0  0
 28 32  1  0  0  0  0
 29 44  1  0  0  0  0
 31 32  1  0  0  0  0
 32  1  1  1  0  0  0
 33 37  1  0  0  0  0
 34 38  1  0  0  0  0
 35 36  1  0  0  0  0
 35 41  1  6  0  0  0
 36 42  1  0  0  0  0
 36 49  1  1  0  0  0
 37 38  1  0  0  0  0
 40 41  2  0  0  0  0
 41 51  1  0  0  0  0
 42 10  1  1  0  0  0
 42 47  1  0  0  0  0
 44 50  2  0  0  0  0
 44 53  1  0  0  0  0
 47 52  1  0  0  0  0
 48 50  1  0  0  0  0
 48 52  1  0  0  0  0
 48 54  1  1  0  0  0
 54 56  1  0  0  0  0
M  END
