1100
 OpenBabel10141417493D

 34 38  0  0  0  0  0  0  0  0999 V2000
   -0.7500   -0.6992    4.0275 F   0  0  0  0  0  0  0  0  0  0  0  0
    8.5462   -3.3512    3.1256 F   0  0  0  0  0  0  0  0  0  0  0  0
    9.2778    5.9287    0.0518 O   0  0  0  0  0  0  0  0  0  0  0  0
    6.1303    4.8526    1.4369 N   0  0  0  0  0  0  0  0  0  0  0  0
    7.6416    6.8294   -1.4412 N   0  0  0  0  0  0  0  0  0  0  0  0
    9.6591    6.1413   -2.2114 N   0  0  0  0  0  0  0  0  0  0  0  0
    6.4162    7.0005   -0.6464 C   0  0  0  0  0  0  0  0  0  0  0  0
    6.5961    7.3156    0.8410 C   0  0  0  0  0  0  0  0  0  0  0  0
    5.4357    5.8336   -0.7660 C   0  0  0  0  0  0  0  0  0  0  0  0
    6.8550    6.1042    1.7422 C   0  0  0  0  0  0  0  0  0  0  0  0
    5.9004    4.6108    0.0097 C   0  0  0  0  0  0  0  0  0  0  0  0
    6.8990    3.7352    2.0272 C   0  0  0  0  0  0  0  0  0  0  0  0
    6.3711    2.3082    1.8044 C   0  0  0  0  0  0  0  0  0  0  0  0
    7.7082    7.0695   -2.8374 C   0  0  0  0  0  0  0  0  0  0  0  0
    4.9728    1.9837    2.3931 C   0  0  0  0  0  0  0  0  0  0  0  0
    8.8783    6.2660   -1.0608 C   0  0  0  0  0  0  0  0  0  0  0  0
    4.5028    0.5053    2.1317 C   0  0  0  0  0  0  0  0  0  0  0  0
    8.9468    6.6209   -3.2951 C   0  0  0  0  0  0  0  0  0  0  0  0
    6.8094    7.6466   -3.7101 C   0  0  0  0  0  0  0  0  0  0  0  0
    3.0944    0.1888    2.6833 C   0  0  0  0  0  0  0  0  0  0  0  0
    5.5431   -0.5688    2.4829 C   0  0  0  0  0  0  0  0  0  0  0  0
    9.3337    6.6765   -4.6157 C   0  0  0  0  0  0  0  0  0  0  0  0
    7.1808    7.7297   -5.0615 C   0  0  0  0  0  0  0  0  0  0  0  0
    8.4231    7.2367   -5.5118 C   0  0  0  0  0  0  0  0  0  0  0  0
    1.9675    0.3385    1.8462 C   0  0  0  0  0  0  0  0  0  0  0  0
    6.5448   -0.3519    3.4466 C   0  0  0  0  0  0  0  0  0  0  0  0
    2.8702   -0.2888    3.9899 C   0  0  0  0  0  0  0  0  0  0  0  0
    5.5469   -1.7938    1.7902 C   0  0  0  0  0  0  0  0  0  0  0  0
    0.6742    0.0344    2.2964 C   0  0  0  0  0  0  0  0  0  0  0  0
    7.5778   -1.2689    3.6345 C   0  0  0  0  0  0  0  0  0  0  0  0
    1.5734   -0.5910    4.4404 C   0  0  0  0  0  0  0  0  0  0  0  0
    6.5499   -2.7406    2.0233 C   0  0  0  0  0  0  0  0  0  0  0  0
    0.4874   -0.4203    3.5927 C   0  0  0  0  0  0  0  0  0  0  0  0
    7.5664   -2.4599    2.9276 C   0  0  0  0  0  0  0  0  0  0  0  0
  1 33  1  0  0  0  0
  2 34  1  0  0  0  0
  3 16  2  0  0  0  0
  4 10  1  0  0  0  0
  4 11  1  0  0  0  0
  4 12  1  0  0  0  0
  5  7  1  0  0  0  0
  5 14  1  0  0  0  0
  5 16  1  0  0  0  0
  6 16  1  0  0  0  0
  6 18  1  0  0  0  0
  7  8  1  0  0  0  0
  7  9  1  0  0  0  0
  8 10  1  0  0  0  0
  9 11  1  0  0  0  0
 12 13  1  0  0  0  0
 13 15  1  0  0  0  0
 14 18  1  0  0  0  0
 14 19  2  0  0  0  0
 15 17  1  0  0  0  0
 17 20  1  0  0  0  0
 17 21  1  0  0  0  0
 18 22  2  0  0  0  0
 19 23  1  0  0  0  0
 20 25  2  0  0  0  0
 20 27  1  0  0  0  0
 21 26  2  0  0  0  0
 21 28  1  0  0  0  0
 22 24  1  0  0  0  0
 23 24  2  0  0  0  0
 25 29  1  0  0  0  0
 26 30  1  0  0  0  0
 27 31  2  0  0  0  0
 28 32  2  0  0  0  0
 29 33  2  0  0  0  0
 30 34  2  0  0  0  0
 31 33  1  0  0  0  0
 32 34  1  0  0  0  0
M  END
