1338
 OpenBabel10141417523D

 43 48  0  0  1  0  0  0  0  0999 V2000
   -0.8049   -2.5499   -1.9083 O   0  0  0  0  0  0  0  0  0  0  0  0
   -6.3867    0.6992   -6.4584 O   0  0  0  0  0  0  0  0  0  0  0  0
   -2.0228   -4.4712   -1.5913 O   0  0  0  0  0  0  0  0  0  0  0  0
   -4.1038    0.8284   -6.2133 O   0  0  0  0  0  0  0  0  0  0  0  0
    0.0288    0.3215   -1.1760 N   0  0  0  0  0  0  0  0  0  0  0  0
   -8.7293   -0.9789   -5.3778 N   0  0  0  0  0  0  0  0  0  0  0  0
    2.8146    0.6038    0.0820 N   0  3  0  0  0  0  0  0  0  0  0  0
   -9.0955   -3.1186   -7.4863 N   0  3  0  0  0  0  0  0  0  0  0  0
   -4.6187    0.5841   -0.9087 C   0  0  2  0  0  0  0  0  0  0  0  0
   -5.8277   -0.2748   -1.4345 C   0  0  1  0  0  0  0  0  0  0  0  0
   -3.4213   -0.3105   -0.5196 C   0  0  1  0  0  0  0  0  0  0  0  0
   -2.9754   -1.3064   -1.6035 C   0  0  2  0  0  0  0  0  0  0  0  0
   -7.0129    0.5830   -2.1285 C   0  0  2  0  0  0  0  0  0  0  0  0
   -6.5453    1.8893   -2.8360 C   0  0  1  0  0  0  0  0  0  0  0  0
   -5.4516   -1.6277   -2.1163 C   0  0  0  0  0  0  0  0  0  0  0  0
   -4.1413   -2.3091   -1.6692 C   0  0  0  0  0  0  0  0  0  0  0  0
   -1.6405   -1.8200   -0.9911 C   0  0  2  0  0  0  0  0  0  0  0  0
   -2.1560    0.3440    0.0380 C   0  0  0  0  0  0  0  0  0  0  0  0
   -4.2552    1.7852   -1.7854 C   0  0  0  0  0  0  0  0  0  0  0  0
   -0.9270   -0.5174   -0.3841 C   0  0  2  0  0  0  0  0  0  0  0  0
   -5.4668    2.6553   -2.0622 C   0  0  0  0  0  0  0  0  0  0  0  0
   -7.9647   -0.2476   -3.0715 C   0  0  0  0  0  0  0  0  0  0  0  0
   -6.1185    1.7644   -4.3043 C   0  0  0  0  0  0  0  0  0  0  0  0
   -7.9849    0.0851   -4.6053 C   0  0  1  0  0  0  0  0  0  0  0  0
   -2.7267   -0.7703   -3.0239 C   0  0  0  0  0  0  0  0  0  0  0  0
   -7.9190    1.0400   -0.9355 C   0  0  0  0  0  0  0  0  0  0  0  0
   -6.5403    0.4917   -5.0354 C   0  0  1  0  0  0  0  0  0  0  0  0
    1.2290   -0.3805   -1.6733 C   0  0  0  0  0  0  0  0  0  0  0  0
    0.4983    1.5620   -0.4862 C   0  0  0  0  0  0  0  0  0  0  0  0
   -8.9112   -0.6603   -6.8059 C   0  0  0  0  0  0  0  0  0  0  0  0
   -8.2851   -2.3632   -5.1682 C   0  0  0  0  0  0  0  0  0  0  0  0
    2.3167   -0.6762   -0.6170 C   0  0  0  0  0  0  0  0  0  0  0  0
    1.6023    1.4040    0.5918 C   0  0  0  0  0  0  0  0  0  0  0  0
   -9.6450   -1.6997   -7.6785 C   0  0  0  0  0  0  0  0  0  0  0  0
   -9.0798   -3.4184   -5.9815 C   0  0  0  0  0  0  0  0  0  0  0  0
   -1.1023   -3.8640   -2.1159 C   0  0  0  0  0  0  0  0  0  0  0  0
    3.6728    1.4471   -0.8606 C   0  0  0  0  0  0  0  0  0  0  0  0
    3.6858    0.1967    1.2705 C   0  0  0  0  0  0  0  0  0  0  0  0
   -5.0865    0.6556   -6.8932 C   0  0  0  0  0  0  0  0  0  0  0  0
   -7.7124   -3.2886   -8.0964 C   0  0  0  0  0  0  0  0  0  0  0  0
  -10.0542   -4.0777   -8.1868 C   0  0  0  0  0  0  0  0  0  0  0  0
   -0.1366   -4.4880   -3.0826 C   0  0  0  0  0  0  0  0  0  0  0  0
   -5.0108    0.0919   -8.2743 C   0  0  0  0  0  0  0  0  0  0  0  0
  1 36  1  0  0  0  0
  2 39  1  0  0  0  0
  3 36  2  0  0  0  0
  4 39  2  0  0  0  0
  5 28  1  0  0  0  0
  5 29  1  0  0  0  0
  6 30  1  0  0  0  0
  6 31  1  0  0  0  0
  7 32  1  0  0  0  0
  7 33  1  0  0  0  0
  7 37  1  0  0  0  0
  7 38  1  0  0  0  0
  8 34  1  0  0  0  0
  8 35  1  0  0  0  0
  8 40  1  0  0  0  0
  8 41  1  0  0  0  0
  9 10  1  0  0  0  0
  9 11  1  0  0  0  0
  9 19  1  1  0  0  0
 10 13  1  0  0  0  0
 10 15  1  6  0  0  0
 11 12  1  0  0  0  0
 11 18  1  6  0  0  0
 12 16  1  0  0  0  0
 12 17  1  0  0  0  0
 12 25  1  6  0  0  0
 13 14  1  0  0  0  0
 13 22  1  0  0  0  0
 13 26  1  6  0  0  0
 14 21  1  1  0  0  0
 14 23  1  0  0  0  0
 15 16  1  0  0  0  0
 17  1  1  6  0  0  0
 17 20  1  0  0  0  0
 18 20  1  0  0  0  0
 19 21  1  0  0  0  0
 20  5  1  6  0  0  0
 22 24  1  0  0  0  0
 23 27  1  0  0  0  0
 24  6  1  6  0  0  0
 24 27  1  0  0  0  0
 27  2  1  6  0  0  0
 28 32  1  0  0  0  0
 29 33  1  0  0  0  0
 30 34  1  0  0  0  0
 31 35  1  0  0  0  0
 36 42  1  0  0  0  0
 39 43  1  0  0  0  0
M  CHG  2   7   1   8   1
M  END
