592
 OpenBabel10141417503D

  6  6  0  0  0  0  0  0  0  0999 V2000
    0.7374    1.2736   -0.1891 N   0  0  0  0  0  0  0  0  0  0  0  0
   -0.7303   -1.2812    0.1915 N   0  0  0  0  0  0  0  0  0  0  0  0
    1.4153    0.0336    0.2290 C   0  0  0  0  0  0  0  0  0  0  0  0
   -0.6726    1.2295    0.2367 C   0  0  0  0  0  0  0  0  0  0  0  0
    0.6805   -1.2435   -0.2330 C   0  0  0  0  0  0  0  0  0  0  0  0
   -1.4023   -0.0436   -0.2423 C   0  0  0  0  0  0  0  0  0  0  0  0
  1  3  1  0  0  0  0
  1  4  1  0  0  0  0
  2  5  1  0  0  0  0
  2  6  1  0  0  0  0
  3  5  1  0  0  0  0
  4  6  1  0  0  0  0
M  END
