1291
 OpenBabel10141417483D

 17 17  0  0  1  0  0  0  0  0999 V2000
    1.3634    0.4565    0.4422 O   0  0  0  0  0  0  0  0  0  0  0  0
    3.8192    4.5924   -3.6688 O   0  0  0  0  0  0  0  0  0  0  0  0
    6.2817    4.3876   -3.0614 O   0  0  0  0  0  0  0  0  0  0  0  0
    2.6587   -2.1214    0.1265 N   0  0  0  0  0  0  0  0  0  0  0  0
    4.2835    1.9160   -1.1871 N   0  0  0  0  0  0  0  0  0  0  0  0
    2.8187   -3.4619   -0.4903 C   0  0  0  0  0  0  0  0  0  0  0  0
    2.8737   -0.9851   -0.8047 C   0  0  0  0  0  0  0  0  0  0  0  0
    2.6911    0.3804   -0.0977 C   0  0  3  0  0  0  0  0  0  0  0  0
    1.7637   -3.7108   -1.5811 C   0  0  0  0  0  0  0  0  0  0  0  0
    4.2306   -3.6673   -1.0685 C   0  0  0  0  0  0  0  0  0  0  0  0
    2.6093   -4.5104    0.6225 C   0  0  0  0  0  0  0  0  0  0  0  0
    2.9797    1.5266   -1.0570 C   0  0  0  0  0  0  0  0  0  0  0  0
    1.9569    2.1266   -1.7821 C   0  0  0  0  0  0  0  0  0  0  0  0
    4.5694    2.9438   -2.0399 C   0  0  0  0  0  0  0  0  0  0  0  0
    2.2580    3.1672   -2.6539 C   0  0  0  0  0  0  0  0  0  0  0  0
    3.5794    3.5771   -2.7875 C   0  0  0  0  0  0  0  0  0  0  0  0
    6.0247    3.3590   -2.0959 C   0  0  0  0  0  0  0  0  0  0  0  0
  1  8  1  0  0  0  0
  2 16  1  0  0  0  0
  3 17  1  0  0  0  0
  4  6  1  0  0  0  0
  4  7  1  0  0  0  0
  5 12  2  0  0  0  0
  5 14  1  0  0  0  0
  6  9  1  0  0  0  0
  6 10  1  0  0  0  0
  6 11  1  0  0  0  0
  7  8  1  0  0  0  0
  8 12  1  0  0  0  0
 12 13  1  0  0  0  0
 13 15  2  0  0  0  0
 14 16  2  0  0  0  0
 14 17  1  0  0  0  0
 15 16  1  0  0  0  0
M  END
