
 OpenBabel10141417483D

 23 25  0  0  0  0  0  0  0  0999 V2000
   -0.4059   -0.1635   -0.1395 C   0  0  0  0  0  0  0  0  0  0  0  0
   -1.6328   -0.8091    0.0906 C   0  0  0  0  0  0  0  0  0  0  0  0
   -2.8049   -0.0738    0.3043 C   0  0  0  0  0  0  0  0  0  0  0  0
   -2.7697    1.3189    0.3065 C   0  0  0  0  0  0  0  0  0  0  0  0
   -1.5622    1.9779    0.0953 C   0  0  0  0  0  0  0  0  0  0  0  0
   -0.4048    1.2279   -0.1362 C   0  0  0  0  0  0  0  0  0  0  0  0
    1.1394    2.0245   -0.3464 S   0  0  0  0  0  0  0  0  0  0  0  0
    2.2140    0.9264    0.3931 N   0  0  0  0  0  0  0  0  0  0  0  0
    2.0837   -0.4626   -0.0446 C   0  0  0  0  0  0  0  0  0  0  0  0
    0.8454   -0.9246   -0.3470 C   0  0  0  0  0  0  0  0  0  0  0  0
    3.3192   -1.3633   -0.0732 C   0  0  0  0  0  0  0  0  0  0  0  0
    3.0723   -2.7154   -0.0252 N   0  0  0  0  0  0  0  0  0  0  0  0
    4.0593   -3.6999   -0.0182 C   0  0  0  0  0  0  0  0  0  0  0  0
    4.7290   -5.7530   -0.8117 C   0  0  0  0  0  0  0  0  0  0  0  0
    3.7695   -4.8037   -0.7361 N   0  0  0  0  0  0  0  0  0  0  0  0
    5.2341   -3.5619    0.7136 C   0  0  0  0  0  0  0  0  0  0  0  0
    6.1752   -4.5875    0.6717 C   0  0  0  0  0  0  0  0  0  0  0  0
    5.9324   -5.6952   -0.1287 C   0  0  0  0  0  0  0  0  0  0  0  0
    3.5675    1.5124    0.5681 C   0  0  0  0  0  0  0  0  0  0  0  0
    0.6607   -2.1950   -0.8795 O   0  0  0  0  0  0  0  0  0  0  0  0
    4.4532   -0.8908   -0.1303 O   0  0  0  0  0  0  0  0  0  0  0  0
    1.4144    2.0709   -1.7582 O   0  0  0  0  0  0  0  0  0  0  0  0
    1.1088    3.2339    0.4625 O   0  0  0  0  0  0  0  0  0  0  0  0
  1  2  1  0  0  0  0
  1  6  2  0  0  0  0
  1 10  1  0  0  0  0
  2  3  2  0  0  0  0
  3  4  1  0  0  0  0
  4  5  2  0  0  0  0
  5  6  1  0  0  0  0
  6  7  1  0  0  0  0
  7  8  1  0  0  0  0
  7 22  2  0  0  0  0
  7 23  2  0  0  0  0
  8  9  1  0  0  0  0
  8 19  1  0  0  0  0
  9 10  2  0  0  0  0
  9 11  1  0  0  0  0
 10 20  1  0  0  0  0
 11 12  1  0  0  0  0
 11 21  2  0  0  0  0
 12 13  1  0  0  0  0
 13 16  1  0  0  0  0
 14 15  1  0  0  0  0
 14 18  2  0  0  0  0
 15 13  2  0  0  0  0
 16 17  2  0  0  0  0
 17 18  1  0  0  0  0
M  END
