
 OpenBabel10141417533D

 31 34  0  0  1  0  0  0  0  0999 V2000
   14.0563    2.7511    1.5240 O   0  0  0  0  0  0  0  0  0  0  0  0
   13.3486    3.3206    2.2926 C   0  0  0  0  0  0  0  0  0  0  0  0
   12.0623    3.6332    1.9889 O   0  0  0  0  0  0  0  0  0  0  0  0
   13.8004    3.7672    3.6700 C   0  0  0  0  0  0  0  0  0  0  0  0
   12.7335    3.7415    4.7637 C   0  0  2  0  0  0  0  0  0  0  0  0
   13.3633    4.2731    5.9439 O   0  0  0  0  0  0  0  0  0  0  0  0
   12.1988    2.3229    5.0617 C   0  0  0  0  0  0  0  0  0  0  0  0
   11.4880    1.5229    3.9318 C   0  0  2  0  0  0  0  0  0  0  0  0
   10.4111    2.3461    3.5197 O   0  0  0  0  0  0  0  0  0  0  0  0
   10.9504    0.1322    4.2417 C   0  0  0  0  0  0  0  0  0  0  0  0
   11.1498   -0.9890    3.5091 C   0  0  0  0  0  0  0  0  0  0  0  0
   11.0285   -2.4046    4.0247 C   0  0  0  0  0  0  0  0  0  0  0  0
   11.5400   -2.8629    5.3127 C   0  0  0  0  0  0  0  0  0  0  0  0
   11.5776   -4.3137    5.5338 C   0  0  0  0  0  0  0  0  0  0  0  0
   12.1630   -5.0234    6.6259 C   0  0  0  0  0  0  0  0  0  0  0  0
   12.1174   -6.4245    6.7449 C   0  0  0  0  0  0  0  0  0  0  0  0
   11.5139   -7.1850    5.7609 C   0  0  0  0  0  0  0  0  0  0  0  0
   10.9772   -6.5321    4.6644 C   0  0  0  0  0  0  0  0  0  0  0  0
   11.0122   -5.1500    4.5469 C   0  0  0  0  0  0  0  0  0  0  0  0
   10.4942   -4.7031    3.4229 N   0  0  0  0  0  0  0  0  0  0  0  0
   10.5131   -3.3848    3.1239 C   0  0  0  0  0  0  0  0  0  0  0  0
    9.9602   -3.1419    1.7266 C   0  0  0  0  0  0  0  0  0  0  0  0
    8.6922   -2.3767    1.4690 C   0  0  0  0  0  0  0  0  0  0  0  0
    8.6662   -3.8648    1.3414 C   0  0  0  0  0  0  0  0  0  0  0  0
   12.0123   -1.9095    6.4339 C   0  0  0  0  0  0  0  0  0  0  0  0
   11.7117   -2.1156    7.8009 C   0  0  0  0  0  0  0  0  0  0  0  0
   12.0964   -1.2149    8.8246 C   0  0  0  0  0  0  0  0  0  0  0  0
   12.7219   -0.0317    8.5095 C   0  0  0  0  0  0  0  0  0  0  0  0
   13.0639    0.8637    9.4440 F   0  0  0  0  0  0  0  0  0  0  0  0
   13.0405    0.2151    7.2051 C   0  0  0  0  0  0  0  0  0  0  0  0
   12.7504   -0.7341    6.2008 C   0  0  0  0  0  0  0  0  0  0  0  0
  1  2  2  0  0  0  0
  2  3  1  0  0  0  0
  2  4  1  0  0  0  0
  5  7  1  1  0  0  0
  5  6  1  0  0  0  0
  5  4  1  0  0  0  0
  8 10  1  1  0  0  0
  8  9  1  0  0  0  0
  8  7  1  0  0  0  0
 10 11  2  0  0  0  0
 11 12  1  0  0  0  0
 12 13  1  0  0  0  0
 12 21  2  0  0  0  0
 13 14  2  0  0  0  0
 13 25  1  0  0  0  0
 14 15  1  0  0  0  0
 14 19  1  0  0  0  0
 15 16  2  0  0  0  0
 16 17  1  0  0  0  0
 17 18  2  0  0  0  0
 18 19  1  0  0  0  0
 19 20  2  0  0  0  0
 20 21  1  0  0  0  0
 21 22  1  0  0  0  0
 22 23  1  0  0  0  0
 22 24  1  0  0  0  0
 23 24  1  0  0  0  0
 25 26  2  0  0  0  0
 25 31  1  0  0  0  0
 26 27  1  0  0  0  0
 27 28  2  0  0  0  0
 28 29  1  0  0  0  0
 28 30  1  0  0  0  0
 30 31  2  0  0  0  0
M  END
