
 OpenBabel10141417593D

 76 83  0  0  1  0  0  0  0  0999 V2000
   12.4742   17.2873  -16.1726 C   0  0  2  0  0  0  0  0  0  0  0  0
   12.5142   17.7719  -17.5117 O   0  0  0  0  0  0  0  0  0  0  0  0
   12.7020   19.1715  -17.6935 C   0  0  1  0  0  0  0  0  0  0  0  0
   14.0435   19.5958  -17.0869 C   0  0  2  0  0  0  0  0  0  0  0  0
   14.0121   19.2800  -15.5791 C   0  0  1  0  0  0  0  0  0  0  0  0
   13.6625   17.8075  -15.3457 C   0  0  0  0  0  0  0  0  0  0  0  0
   13.2999   13.1267  -17.5468 C   0  0  2  0  0  0  0  0  0  0  0  0
   13.2076   13.5536  -18.9097 O   0  0  0  0  0  0  0  0  0  0  0  0
   12.8178   14.9201  -19.1126 C   0  0  1  0  0  0  0  0  0  0  0  0
   11.4947   15.1992  -18.3662 C   0  0  1  0  0  0  0  0  0  0  0  0
   11.6651   15.0262  -16.8431 C   0  0  1  0  0  0  0  0  0  0  0  0
   12.0993   13.5546  -16.6734 C   0  0  0  0  0  0  0  0  0  0  0  0
   12.6283   15.8546  -16.1799 O   0  0  0  0  0  0  0  0  0  0  0  0
   16.0307   10.5360  -16.4615 C   0  0  2  0  0  0  0  0  0  0  0  0
   16.6099   11.3717  -15.4548 O   0  0  0  0  0  0  0  0  0  0  0  0
   17.6344   12.1958  -16.0105 C   0  0  1  0  0  0  0  0  0  0  0  0
   17.0143   13.3345  -16.8503 C   0  0  2  0  0  0  0  0  0  0  0  0
   15.7194   12.8746  -17.5815 C   0  0  1  0  0  0  0  0  0  0  0  0
   15.7085   11.3449  -17.7337 C   0  0  0  0  0  0  0  0  0  0  0  0
   16.3347    0.0000  -12.3662 C   0  0  2  0  0  0  0  0  0  0  0  0
   17.7086   -0.2932  -12.1346 O   0  0  0  0  0  0  0  0  0  0  0  0
   18.0286   -1.2393  -11.1014 C   0  0  1  0  0  0  0  0  0  0  0  0
   17.2476   -1.0211   -9.7901 C   0  0  2  0  0  0  0  0  0  0  0  0
   15.7636   -0.7232  -10.0286 C   0  0  1  0  0  0  0  0  0  0  0  0
   15.6099    0.3769  -11.0743 C   0  0  0  0  0  0  0  0  0  0  0  0
   14.8601   -2.6994  -16.2114 C   0  0  2  0  0  0  0  0  0  0  0  0
   15.0050   -2.6165  -14.6849 C   0  0  2  0  0  0  0  0  0  0  0  0
   16.0029   -1.4973  -14.2905 C   0  0  1  0  0  0  0  0  0  0  0  0
   16.0631   -0.4273  -15.3870 C   0  0  0  0  0  0  0  0  0  0  0  0
   14.7260   -0.2804  -16.1207 C   0  0  1  0  0  0  0  0  0  0  0  0
   14.3271   -1.4955  -16.7662 O   0  0  0  0  0  0  0  0  0  0  0  0
   12.0589    1.8475  -14.8973 C   0  0  0  0  0  0  0  0  0  0  0  0
   13.3727    1.4775  -15.2262 C   0  0  0  0  0  0  0  0  0  0  0  0
   13.6954    0.1429  -15.2123 O   0  0  0  0  0  0  0  0  0  0  0  0
   11.7286    3.2221  -14.9397 C   0  0  0  0  0  0  0  0  0  0  0  0
   12.6716    4.2469  -15.2872 C   0  0  0  0  0  0  0  0  0  0  0  0
   13.9780    3.8173  -15.5870 C   0  0  0  0  0  0  0  0  0  0  0  0
   14.3119    2.4651  -15.5268 C   0  0  0  0  0  0  0  0  0  0  0  0
   12.4220    5.6498  -15.3726 C   0  0  0  0  0  0  0  0  0  0  0  0
   13.4008    6.5911  -15.8021 C   0  0  0  0  0  0  0  0  0  0  0  0
   14.6584    6.0829  -16.1875 C   0  0  0  0  0  0  0  0  0  0  0  0
   14.9513    4.7255  -16.0081 C   0  0  0  0  0  0  0  0  0  0  0  0
   13.1777    8.0798  -15.9373 C   0  0  0  0  0  0  0  0  0  0  0  0
   14.1575    8.9303  -16.7389 C   0  0  2  0  0  0  0  0  0  0  0  0
   14.9862    8.0423  -17.7005 C   0  0  1  0  0  0  0  0  0  0  0  0
   15.6725    6.9639  -16.8460 C   0  0  0  0  0  0  0  0  0  0  0  0
   13.9410   -3.8330  -16.6563 C   0  0  0  0  0  0  0  0  0  0  0  0
   15.5905   -1.0447  -12.9870 O   0  0  0  0  0  0  0  0  0  0  0  0
   15.4593   -3.8543  -14.1340 O   0  0  0  0  0  0  0  0  0  0  0  0
   16.0779    7.0357  -20.2120 O   0  0  0  0  0  0  0  0  0  0  0  0
   14.9040    6.7557  -19.9502 C   0  0  0  0  0  0  0  0  0  0  0  0
   14.1084    7.5215  -18.8855 C   0  0  1  0  0  0  0  0  0  0  0  0
   15.9023    4.0250  -19.8126 O   0  0  0  0  0  0  0  0  0  0  0  0
   14.4945    4.3102  -19.8213 C   0  0  1  0  0  0  0  0  0  0  0  0
   14.1935    5.5823  -20.6368 C   0  0  2  0  0  0  0  0  0  0  0  0
   14.9655    9.7648  -15.8898 O   0  0  0  0  0  0  0  0  0  0  0  0
   13.3347    8.5727  -19.4675 O   0  0  0  0  0  0  0  0  0  0  0  0
   12.2334    8.6325  -15.3372 O   0  0  0  0  0  0  0  0  0  0  0  0
   11.1511    6.1137  -15.1171 O   0  0  0  0  0  0  0  0  0  0  0  0
   10.4423    3.6454  -14.6665 O   0  0  0  0  0  0  0  0  0  0  0  0
   14.6484    5.4208  -21.9772 O   0  0  0  0  0  0  0  0  0  0  0  0
   13.8063    3.0822  -20.4035 C   0  0  0  0  0  0  0  0  0  0  0  0
   14.0260    9.4814  -20.3211 C   0  0  0  0  0  0  0  0  0  0  0  0
   18.5199   12.7057  -14.8790 C   0  0  0  0  0  0  0  0  0  0  0  0
   14.5565   13.4178  -16.9206 O   0  0  0  0  0  0  0  0  0  0  0  0
   15.0462   -1.8990  -10.4058 O   0  0  0  0  0  0  0  0  0  0  0  0
   17.9710   -2.6726  -11.6122 C   0  0  0  0  0  0  0  0  0  0  0  0
   17.8275    0.0895   -9.0792 O   0  0  0  0  0  0  0  0  0  0  0  0
   17.9886   13.7392  -17.8318 O   0  0  0  0  0  0  0  0  0  0  0  0
   14.0167   15.8268  -18.8501 C   0  0  0  0  0  0  0  0  0  0  0  0
   12.6600   19.4396  -19.2015 C   0  0  0  0  0  0  0  0  0  0  0  0
   15.3464   19.6249  -14.9057 C   0  0  0  0  0  0  0  0  0  0  0  0
   13.0086   20.1008  -14.9619 O   0  0  0  0  0  0  0  0  0  0  0  0
   14.2709   20.9957  -17.2821 O   0  0  0  0  0  0  0  0  0  0  0  0
   10.8360   16.4001  -18.7420 O   0  0  0  0  0  0  0  0  0  0  0  0
   11.0535    0.8080  -14.4713 C   0  0  0  0  0  0  0  0  0  0  0  0
  1  2  1  0  0  0  0
  1  6  1  0  0  0  0
  1 13  1  6  0  0  0
  2  3  1  0  0  0  0
  3  4  1  0  0  0  0
  3 71  1  6  0  0  0
  4  5  1  0  0  0  0
  4 74  1  1  0  0  0
  5  6  1  0  0  0  0
  5 72  1  1  0  0  0
  5 73  1  0  0  0  0
  7  8  1  0  0  0  0
  7 12  1  0  0  0  0
  7 65  1  1  0  0  0
  8  9  1  0  0  0  0
  9 10  1  0  0  0  0
  9 70  1  1  0  0  0
 10 11  1  0  0  0  0
 10 75  1  1  0  0  0
 11 12  1  0  0  0  0
 11 13  1  6  0  0  0
 14 15  1  0  0  0  0
 14 19  1  0  0  0  0
 14 56  1  1  0  0  0
 15 16  1  0  0  0  0
 16 17  1  0  0  0  0
 16 64  1  1  0  0  0
 17 18  1  0  0  0  0
 17 69  1  6  0  0  0
 18 19  1  0  0  0  0
 18 65  1  1  0  0  0
 20 21  1  0  0  0  0
 20 25  1  0  0  0  0
 20 48  1  1  0  0  0
 21 22  1  0  0  0  0
 22 23  1  0  0  0  0
 22 67  1  6  0  0  0
 23 24  1  0  0  0  0
 23 68  1  6  0  0  0
 24 25  1  0  0  0  0
 24 66  1  6  0  0  0
 26 27  1  0  0  0  0
 26 31  1  0  0  0  0
 26 47  1  1  0  0  0
 27 28  1  0  0  0  0
 27 49  1  6  0  0  0
 28 29  1  0  0  0  0
 28 48  1  1  0  0  0
 29 30  1  0  0  0  0
 30 31  1  0  0  0  0
 30 34  1  1  0  0  0
 32 33  2  0  0  0  0
 32 35  1  0  0  0  0
 32 76  1  0  0  0  0
 33 34  1  0  0  0  0
 33 38  1  0  0  0  0
 35 36  2  0  0  0  0
 35 60  1  0  0  0  0
 36 37  1  0  0  0  0
 36 39  1  0  0  0  0
 37 38  2  0  0  0  0
 37 42  1  0  0  0  0
 39 40  2  0  0  0  0
 39 59  1  0  0  0  0
 40 41  1  0  0  0  0
 40 43  1  0  0  0  0
 41 42  2  0  0  0  0
 41 46  1  0  0  0  0
 43 44  1  0  0  0  0
 43 58  2  0  0  0  0
 44 45  1  0  0  0  0
 44 56  1  1  0  0  0
 45 46  1  1  0  0  0
 45 52  1  0  0  0  0
 50 51  2  0  0  0  0
 52 51  1  1  0  0  0
 52 57  1  0  0  0  0
 54 62  1  6  0  0  0
 54 53  1  0  0  0  0
 54 55  1  0  0  0  0
 55 61  1  6  0  0  0
 55 51  1  0  0  0  0
 57 63  1  0  0  0  0
M  END
