
 OpenBabel10141417513D

 85 86  0  0  0  0  0  0  0  0999 V2000
   13.5498   -4.7724    7.1979 C   0  0  0  0  0  0  0  0  0  0  0  0
   13.2730   -3.7515    8.2324 C   0  0  0  0  0  0  0  0  0  0  0  0
   13.9564   -2.4061    7.9525 C   0  0  3  0  0  0  0  0  0  0  0  0
   13.5490   -1.4756    9.1016 C   0  0  0  0  0  0  0  0  0  0  0  0
   15.5087   -2.3649    7.8343 C   0  0  0  0  0  0  0  0  0  0  0  0
   16.2352   -3.0133    6.6407 C   0  0  0  0  0  0  0  0  0  0  0  0
   15.7956   -2.5054    5.2697 C   0  0  0  0  0  0  0  0  0  0  0  0
   16.5278   -3.1079    4.0595 C   0  0  0  0  0  0  0  0  0  0  0  0
   16.3669   -4.6084    3.7816 C   0  0  0  0  0  0  0  0  0  0  0  0
   15.7630   -4.9880    2.8118 O   0  0  0  0  0  0  0  0  0  0  0  0
   16.9962   -5.4308    4.7158 N   0  0  0  0  0  0  0  0  0  0  0  0
   16.9245   -6.9221    4.7456 C   0  0  3  0  0  0  0  0  0  0  0  0
   15.4760   -7.4216    4.5280 C   0  0  0  0  0  0  0  0  0  0  0  0
   14.5147   -6.9190    5.5771 C   0  0  0  0  0  0  0  0  0  0  0  0
   13.1353   -7.1366    5.1642 N   0  0  0  0  0  0  0  0  0  0  0  0
   17.9244   -7.6251    3.7386 C   0  0  0  0  0  0  0  0  0  0  0  0
   17.7309   -7.5262    2.5259 O   0  0  0  0  0  0  0  0  0  0  0  0
   19.0582   -8.2467    4.2500 N   0  0  0  0  0  0  0  0  0  0  0  0
   20.1419   -8.9335    3.4320 C   0  0  3  0  0  0  0  0  0  0  0  0
   19.8683  -10.4354    3.0847 C   0  0  3  0  0  0  0  0  0  0  0  0
   19.6815  -11.3428    4.3037 C   0  0  0  0  0  0  0  0  0  0  0  0
   18.7009  -10.5776    2.2848 O   0  0  0  0  0  0  0  0  0  0  0  0
   20.7458   -8.1886    2.1247 C   0  0  0  0  0  0  0  0  0  0  0  0
   20.1113   -7.5722    1.3363 O   0  0  0  0  0  0  0  0  0  0  0  0
   22.1166   -8.4061    1.8941 N   0  0  0  0  0  0  0  0  0  0  0  0
   22.9150   -7.6661    0.8439 C   0  0  3  0  0  0  0  0  0  0  0  0
   23.6951   -8.7186    0.0130 C   0  0  0  0  0  0  0  0  0  0  0  0
   24.6051   -8.2608   -1.1344 C   0  0  0  0  0  0  0  0  0  0  0  0
   25.7960   -7.5474   -0.7145 N   0  0  0  0  0  0  0  0  0  0  0  0
   23.8884   -6.7105    1.6085 C   0  0  0  0  0  0  0  0  0  0  0  0
   23.9988   -6.7738    2.8318 O   0  0  0  0  0  0  0  0  0  0  0  0
   24.6849   -5.8702    0.8176 N   0  0  0  0  0  0  0  0  0  0  0  0
   25.8383   -5.0783    1.3813 C   0  0  3  0  0  0  0  0  0  0  0  0
   25.2038   -4.0267    2.3051 C   0  0  0  0  0  0  0  0  0  0  0  0
   26.0595   -3.2337    3.2765 C   0  0  0  0  0  0  0  0  0  0  0  0
   25.4090   -1.9612    3.5592 N   0  0  0  0  0  0  0  0  0  0  0  0
   24.4619   -1.7705    4.5467 C   0  0  0  0  0  0  0  0  0  0  0  0
   24.0969   -2.6559    5.3160 O   0  0  0  0  0  0  0  0  0  0  0  0
   24.1020   -0.2909    4.7790 C   0  0  3  0  0  0  0  0  0  0  0  0
   23.9480    0.4543    3.4979 N   0  0  0  0  0  0  0  0  0  0  0  0
   22.8231    1.2131    3.2579 C   0  0  0  0  0  0  0  0  0  0  0  0
   22.9669    2.4387    3.2155 O   0  0  0  0  0  0  0  0  0  0  0  0
   21.5563    0.5213    2.6971 C   0  0  3  0  0  0  0  0  0  0  0  0
   20.3259    1.3420    3.1603 C   0  0  0  0  0  0  0  0  0  0  0  0
   18.9820    0.8334    2.6402 C   0  0  0  0  0  0  0  0  0  0  0  0
   18.9177    0.8991    1.1831 N   0  0  0  0  0  0  0  0  0  0  0  0
   21.7359    0.5660    1.2159 N   0  0  0  0  0  0  0  0  0  0  0  0
   21.7933   -0.5338    0.3672 C   0  0  0  0  0  0  0  0  0  0  0  0
   21.4141   -1.6446    0.7233 O   0  0  0  0  0  0  0  0  0  0  0  0
   22.3523   -0.2267   -1.0700 C   0  0  3  0  0  0  0  0  0  0  0  0
   23.8490    0.1348   -0.9335 C   0  0  0  0  0  0  0  0  0  0  0  0
   24.5957    0.4422   -2.2323 C   0  0  0  0  0  0  0  0  0  0  0  0
   25.9886    0.7551   -1.9253 N   0  0  0  0  0  0  0  0  0  0  0  0
   22.1037   -1.2457   -2.1137 N   0  0  0  0  0  0  0  0  0  0  0  0
   22.9738   -2.2833   -2.3869 C   0  0  0  0  0  0  0  0  0  0  0  0
   23.8625   -2.6342   -1.6033 O   0  0  0  0  0  0  0  0  0  0  0  0
   22.9355   -2.8863   -3.8287 C   0  0  3  0  0  0  0  0  0  0  0  0
   23.2071   -1.7707   -4.8816 C   0  0  0  0  0  0  0  0  0  0  0  0
   23.1450   -2.1736   -6.3732 C   0  0  0  0  0  0  0  0  0  0  0  0
   23.4384   -0.9695   -7.2772 C   0  0  0  0  0  0  0  0  0  0  0  0
   24.1147   -3.2858   -6.7642 C   0  0  0  0  0  0  0  0  0  0  0  0
   24.0538   -3.8646   -3.8387 N   0  0  0  0  0  0  0  0  0  0  0  0
   23.9901   -5.1485   -4.3504 C   0  0  0  0  0  0  0  0  0  0  0  0
   22.9168   -5.6377   -4.6964 O   0  0  0  0  0  0  0  0  0  0  0  0
   25.3799   -5.9096   -4.5323 C   0  0  3  0  0  0  0  0  0  0  0  0
   25.5524   -6.4869   -6.0109 C   0  0  0  0  0  0  0  0  0  0  0  0
   26.7690   -7.2748   -6.5375 C   0  0  0  0  0  0  0  0  0  0  0  0
   26.7707   -7.8297   -7.8325 C   0  0  0  0  0  0  0  0  0  0  0  0
   27.9259   -8.4364   -8.3800 C   0  0  0  0  0  0  0  0  0  0  0  0
   29.1160   -8.4905   -7.6613 C   0  0  0  0  0  0  0  0  0  0  0  0
   29.1283   -7.9893   -6.3783 C   0  0  0  0  0  0  0  0  0  0  0  0
   27.9659   -7.4234   -5.8439 C   0  0  0  0  0  0  0  0  0  0  0  0
   26.5024   -5.1076   -3.9638 N   0  0  0  0  0  0  0  0  0  0  0  0
   27.3594   -5.7174   -3.0672 C   0  0  0  0  0  0  0  0  0  0  0  0
   27.3811   -6.9482   -2.9626 O   0  0  0  0  0  0  0  0  0  0  0  0
   28.0756   -4.8915   -1.9788 C   0  0  3  0  0  0  0  0  0  0  0  0
   29.4094   -5.5878   -1.6043 C   0  0  0  0  0  0  0  0  0  0  0  0
   30.4246   -5.8757   -2.7291 C   0  0  0  0  0  0  0  0  0  0  0  0
   31.1126   -4.7635   -3.3732 N   0  0  0  0  0  0  0  0  0  0  0  0
   27.0700   -5.1094   -0.8852 N   0  0  0  0  0  0  0  0  0  0  0  0
   26.9292   -4.4754    0.3334 C   0  0  0  0  0  0  0  0  0  0  0  0
   27.7103   -3.5813    0.6587 O   0  0  0  0  0  0  0  0  0  0  0  0
   25.2231    0.3499    5.6714 C   0  0  3  0  0  0  0  0  0  0  0  0
   26.6350    0.3425    5.0678 C   0  0  0  0  0  0  0  0  0  0  0  0
   24.8687    1.7147    5.9290 O   0  0  0  0  0  0  0  0  0  0  0  0
  1  2  1  0  0  0  0
  2  3  1  0  0  0  0
  3  4  1  0  0  0  0
  3  5  1  0  0  0  0
  5  6  1  0  0  0  0
  6  7  1  0  0  0  0
  7  8  1  0  0  0  0
  8  9  1  0  0  0  0
  9 10  2  0  0  0  0
  9 11  1  0  0  0  0
 11 12  1  0  0  0  0
 12 13  1  0  0  0  0
 12 16  1  0  0  0  0
 13 14  1  0  0  0  0
 14 15  1  0  0  0  0
 16 17  2  0  0  0  0
 16 18  1  0  0  0  0
 18 19  1  0  0  0  0
 19 20  1  0  0  0  0
 19 23  1  0  0  0  0
 20 21  1  0  0  0  0
 20 22  1  0  0  0  0
 23 24  2  0  0  0  0
 23 25  1  0  0  0  0
 25 26  1  0  0  0  0
 26 27  1  0  0  0  0
 26 30  1  0  0  0  0
 27 28  1  0  0  0  0
 28 29  1  0  0  0  0
 30 31  2  0  0  0  0
 30 32  1  0  0  0  0
 32 33  1  0  0  0  0
 33 34  1  0  0  0  0
 33 81  1  0  0  0  0
 34 35  1  0  0  0  0
 35 36  1  0  0  0  0
 36 37  1  0  0  0  0
 37 38  2  0  0  0  0
 37 39  1  0  0  0  0
 39 40  1  0  0  0  0
 39 83  1  0  0  0  0
 40 41  1  0  0  0  0
 41 42  2  0  0  0  0
 41 43  1  0  0  0  0
 43 44  1  0  0  0  0
 43 47  1  0  0  0  0
 44 45  1  0  0  0  0
 45 46  1  0  0  0  0
 47 48  1  0  0  0  0
 48 49  2  0  0  0  0
 48 50  1  0  0  0  0
 50 51  1  0  0  0  0
 50 54  1  0  0  0  0
 51 52  1  0  0  0  0
 52 53  1  0  0  0  0
 54 55  1  0  0  0  0
 55 56  2  0  0  0  0
 55 57  1  0  0  0  0
 57 58  1  0  0  0  0
 57 62  1  0  0  0  0
 58 59  1  0  0  0  0
 59 60  1  0  0  0  0
 59 61  1  0  0  0  0
 62 63  1  0  0  0  0
 63 64  2  0  0  0  0
 63 65  1  0  0  0  0
 65 66  1  0  0  0  0
 65 73  1  0  0  0  0
 66 67  1  0  0  0  0
 67 68  2  0  0  0  0
 67 72  1  0  0  0  0
 68 69  1  0  0  0  0
 69 70  2  0  0  0  0
 70 71  1  0  0  0  0
 71 72  2  0  0  0  0
 73 74  1  0  0  0  0
 74 75  2  0  0  0  0
 74 76  1  0  0  0  0
 76 77  1  0  0  0  0
 76 80  1  0  0  0  0
 77 78  1  0  0  0  0
 78 79  1  0  0  0  0
 80 81  1  0  0  0  0
 81 82  2  0  0  0  0
 83 84  1  0  0  0  0
 83 85  1  0  0  0  0
M  END
