
 OpenBabel10141417483D

 19 19  0  0  0  0  0  0  0  0999 V2000
    1.1565   -1.0468   -0.4942 C   0  0  0  0  0  0  0  0  0  0  0  0
    0.6446   -1.7341    0.5929 N   0  0  0  0  0  0  0  0  0  0  0  0
    2.3166   -1.1119   -0.9112 O   0  0  0  0  0  0  0  0  0  0  0  0
    3.1129   -9.4888    4.4769 N   0  0  0  0  0  0  0  0  0  0  0  0
    1.3615   -2.5932    1.4597 C   0  0  0  0  0  0  0  0  0  0  0  0
    3.3754   -5.1383    4.1066 O   0  0  0  0  0  0  0  0  0  0  0  0
    3.7880   -7.2055    5.2896 C   0  0  3  0  0  0  0  0  0  0  0  0
    2.6534   -4.3630    3.2421 C   0  0  0  0  0  0  0  0  0  0  0  0
    3.2477   -8.6050    5.6512 C   0  0  0  0  0  0  0  0  0  0  0  0
    2.8488   -6.4517    4.3347 C   0  0  0  0  0  0  0  0  0  0  0  0
    2.7558   -2.6276    1.5469 C   0  0  0  0  0  0  0  0  0  0  0  0
    0.6224   -3.4404    2.2937 C   0  0  0  0  0  0  0  0  0  0  0  0
    3.3951   -3.5060    2.4335 C   0  0  0  0  0  0  0  0  0  0  0  0
    1.2625   -4.3207    3.1795 C   0  0  0  0  0  0  0  0  0  0  0  0
    5.1075   -7.3469    4.7415 O   0  0  0  0  0  0  0  0  0  0  0  0
    2.6030  -10.8294    4.8197 C   0  0  0  0  0  0  0  0  0  0  0  0
    0.1404   -0.2028   -1.2204 C   0  0  0  0  0  0  0  0  0  0  0  0
    2.4926  -11.6544    3.5320 C   0  0  0  0  0  0  0  0  0  0  0  0
    3.4881  -11.5641    5.8313 C   0  0  0  0  0  0  0  0  0  0  0  0
  2  1  1  0  0  0  0
  3  1  2  0  0  0  0
  4  9  1  0  0  0  0
  5  2  1  0  0  0  0
  6  8  1  0  0  0  0
  7 10  1  0  0  0  0
  8 14  2  0  0  0  0
  9  7  1  0  0  0  0
 10  6  1  0  0  0  0
 11  5  1  0  0  0  0
 12  5  2  0  0  0  0
 13 11  2  0  0  0  0
 13  8  1  0  0  0  0
 14 12  1  0  0  0  0
 15  7  1  0  0  0  0
 16  4  1  0  0  0  0
 17  1  1  0  0  0  0
 18 16  1  0  0  0  0
 19 16  1  0  0  0  0
M  END
