1411
 OpenBabel10141417503D

 36 40  0  0  0  0  0  0  0  0999 V2000
    1.1402   -0.8083   -0.4246 O   0  0  0  0  0  0  0  0  0  0  0  0
   11.5868    2.3894   -0.7577 O   0  0  0  0  0  0  0  0  0  0  0  0
   11.5458    5.9756    1.1310 O   0  0  0  0  0  0  0  0  0  0  0  0
    7.4847   -0.1559   -1.0925 O   0  0  0  0  0  0  0  0  0  0  0  0
    6.7706    1.9611   -0.4145 N   0  0  0  0  0  0  0  0  0  0  0  0
   14.1182    1.2871   -1.5127 N   0  0  0  0  0  0  0  0  0  0  0  0
   14.9890    2.2178    0.3555 N   0  0  0  0  0  0  0  0  0  0  0  0
   15.3420    0.8388   -1.1978 N   0  0  0  0  0  0  0  0  0  0  0  0
   15.8928    1.3591   -0.0949 N   0  0  0  0  0  0  0  0  0  0  0  0
   -1.1457   -3.5889    0.7761 C   0  0  0  0  0  0  0  0  0  0  0  0
   -0.7120   -2.2126    0.2590 C   0  0  0  0  0  0  0  0  0  0  0  0
   -0.7371   -4.7260   -0.1660 C   0  0  0  0  0  0  0  0  0  0  0  0
    0.8026   -2.0981    0.0886 C   0  0  0  0  0  0  0  0  0  0  0  0
   -1.1742   -6.0729    0.3424 C   0  0  0  0  0  0  0  0  0  0  0  0
   -2.4175   -6.5994   -0.0251 C   0  0  0  0  0  0  0  0  0  0  0  0
   -0.3434   -6.8092    1.1984 C   0  0  0  0  0  0  0  0  0  0  0  0
    2.4800   -0.5787   -0.6126 C   0  0  0  0  0  0  0  0  0  0  0  0
   10.3000    4.1420    0.3094 C   0  0  0  0  0  0  0  0  0  0  0  0
   10.3850    2.9340   -0.3759 C   0  0  0  0  0  0  0  0  0  0  0  0
    7.9811    2.6656   -0.2372 C   0  0  0  0  0  0  0  0  0  0  0  0
    9.2257    2.2083   -0.6760 C   0  0  0  0  0  0  0  0  0  0  0  0
    5.1719    0.2004   -0.8693 C   0  0  0  0  0  0  0  0  0  0  0  0
   -2.8211   -7.8461    0.4515 C   0  0  0  0  0  0  0  0  0  0  0  0
   -0.7489   -8.0556    1.6735 C   0  0  0  0  0  0  0  0  0  0  0  0
    9.0596    4.6380    0.7073 C   0  0  0  0  0  0  0  0  0  0  0  0
    7.9061    3.8946    0.4397 C   0  0  0  0  0  0  0  0  0  0  0  0
    2.8054    0.7042   -1.0560 C   0  0  0  0  0  0  0  0  0  0  0  0
    3.5081   -1.4979   -0.3815 C   0  0  0  0  0  0  0  0  0  0  0  0
   11.5418    4.8549    0.6392 C   0  0  0  0  0  0  0  0  0  0  0  0
    4.1422    1.0911   -1.1935 C   0  0  0  0  0  0  0  0  0  0  0  0
    4.8498   -1.1139   -0.5130 C   0  0  0  0  0  0  0  0  0  0  0  0
   -1.9876   -8.5732    1.3001 C   0  0  0  0  0  0  0  0  0  0  0  0
    6.6035    0.6454   -0.8350 C   0  0  0  0  0  0  0  0  0  0  0  0
   12.7575    2.9577   -0.2653 C   0  0  0  0  0  0  0  0  0  0  0  0
   12.7960    4.1315    0.3849 C   0  0  0  0  0  0  0  0  0  0  0  0
   13.9207    2.1601   -0.5108 C   0  0  0  0  0  0  0  0  0  0  0  0
  1 13  1  0  0  0  0
  1 17  1  0  0  0  0
  2 19  1  0  0  0  0
  2 34  1  0  0  0  0
  3 29  2  0  0  0  0
  4 33  2  0  0  0  0
  5 20  1  0  0  0  0
  5 33  1  0  0  0  0
  6  8  1  0  0  0  0
  6 36  2  0  0  0  0
  7  9  2  0  0  0  0
  7 36  1  0  0  0  0
  8  9  1  0  0  0  0
 10 11  1  0  0  0  0
 10 12  1  0  0  0  0
 11 13  1  0  0  0  0
 12 14  1  0  0  0  0
 14 15  2  0  0  0  0
 14 16  1  0  0  0  0
 15 23  1  0  0  0  0
 16 24  2  0  0  0  0
 17 27  2  0  0  0  0
 17 28  1  0  0  0  0
 18 19  2  0  0  0  0
 18 25  1  0  0  0  0
 18 29  1  0  0  0  0
 19 21  1  0  0  0  0
 20 21  2  0  0  0  0
 20 26  1  0  0  0  0
 22 30  2  0  0  0  0
 22 31  1  0  0  0  0
 22 33  1  0  0  0  0
 23 32  2  0  0  0  0
 24 32  1  0  0  0  0
 25 26  2  0  0  0  0
 27 30  1  0  0  0  0
 28 31  2  0  0  0  0
 29 35  1  0  0  0  0
 34 35  2  0  0  0  0
 34 36  1  0  0  0  0
M  END
