175
 OpenBabel10141417503D

 30 31  0  0  1  0  0  0  0  0999 V2000
   -3.9855   -5.7674   -0.5381 O   0  0  0  0  0  0  0  0  0  0  0  0
   -1.9577   -9.4459   -2.3361 O   0  0  0  0  0  0  0  0  0  0  0  0
   -1.1644   -2.1276   -5.6044 O   0  0  0  0  0  0  0  0  0  0  0  0
   -3.9002   -3.4629   -0.8856 O   0  0  0  0  0  0  0  0  0  0  0  0
    2.3050   -1.8156   -4.9945 O   0  0  0  0  0  0  0  0  0  0  0  0
   -0.9541    1.0033   -5.0240 O   0  0  0  0  0  0  0  0  0  0  0  0
    0.3777   -0.2513   -6.2947 O   0  0  0  0  0  0  0  0  0  0  0  0
   -3.3726   -6.0972   -2.9847 C   0  0  1  0  0  0  0  0  0  0  0  0
   -3.8167   -4.7443   -3.5875 C   0  0  2  0  0  0  0  0  0  0  0  0
   -2.9073   -6.0134   -1.5004 C   0  0  2  0  0  0  0  0  0  0  0  0
   -4.9126   -4.8002   -4.6743 C   0  0  2  0  0  0  0  0  0  0  0  0
   -2.6143   -3.8093   -3.8705 C   0  0  0  0  0  0  0  0  0  0  0  0
   -4.3621   -7.2311   -3.1079 C   0  0  0  0  0  0  0  0  0  0  0  0
   -2.2034   -7.3434   -1.1325 C   0  0  0  0  0  0  0  0  0  0  0  0
   -2.8966   -8.6239   -1.6476 C   0  0  1  0  0  0  0  0  0  0  0  0
   -5.9311   -5.8671   -4.3774 C   0  0  0  0  0  0  0  0  0  0  0  0
   -1.5157   -4.3126   -4.8367 C   0  0  0  0  0  0  0  0  0  0  0  0
   -4.0647   -8.4188   -2.5568 C   0  0  0  0  0  0  0  0  0  0  0  0
   -5.6372   -7.0015   -3.7343 C   0  0  0  0  0  0  0  0  0  0  0  0
   -4.4570   -5.0249   -6.1045 C   0  0  0  0  0  0  0  0  0  0  0  0
   -0.4451   -3.2481   -5.1234 C   0  0  2  0  0  0  0  0  0  0  0  0
    0.4220   -2.9157   -3.8987 C   0  0  0  0  0  0  0  0  0  0  0  0
   -4.2941   -4.4635   -0.2632 C   0  0  0  0  0  0  0  0  0  0  0  0
    1.3484   -1.6864   -3.9480 C   0  0  2  0  0  0  0  0  0  0  0  0
   -5.1938   -4.3810    0.9927 C   0  0  2  0  0  0  0  0  0  0  0  0
    0.6992   -0.2932   -3.8996 C   0  0  0  0  0  0  0  0  0  0  0  0
   -6.6566   -4.8041    0.7788 C   0  0  0  0  0  0  0  0  0  0  0  0
   -5.0759   -2.9511    1.5421 C   0  0  0  0  0  0  0  0  0  0  0  0
   -7.4455   -3.9316   -0.1905 C   0  0  0  0  0  0  0  0  0  0  0  0
    0.0783    0.1460   -5.1972 C   0  0  0  0  0  0  0  0  0  0  0  0
  1 23  1  0  0  0  0
  4 23  2  0  0  0  0
  6 30  1  0  0  0  0
  7 30  2  0  0  0  0
  8  9  1  0  0  0  0
  8 10  1  0  0  0  0
  8 13  1  1  0  0  0
  9 11  1  0  0  0  0
  9 12  1  6  0  0  0
 10 14  1  0  0  0  0
 10  1  1  1  0  0  0
 11 16  1  0  0  0  0
 11 20  1  6  0  0  0
 12 17  1  0  0  0  0
 13 18  2  0  0  0  0
 13 19  1  0  0  0  0
 14 15  1  0  0  0  0
 15 18  1  0  0  0  0
 15  2  1  6  0  0  0
 16 19  2  0  0  0  0
 17 21  1  0  0  0  0
 21  3  1  1  0  0  0
 21 22  1  0  0  0  0
 22 24  1  0  0  0  0
 24  5  1  6  0  0  0
 24 26  1  0  0  0  0
 25 28  1  6  0  0  0
 25 27  1  0  0  0  0
 25 23  1  0  0  0  0
 26 30  1  0  0  0  0
 27 29  1  0  0  0  0
M  END
