1588
 OpenBabel10141417503D

 23 26  0  0  0  0  0  0  0  0999 V2000
    0.8034    0.6511   -0.7683 Cl  0  0  0  0  0  0  0  0  0  0  0  0
    8.8584    0.6799   -0.7234 O   0  0  0  0  0  0  0  0  0  0  0  0
    6.7203   -0.0545   -0.2186 N   0  0  0  0  0  0  0  0  0  0  0  0
    6.5360    2.9980   -0.1872 N   0  0  0  0  0  0  0  0  0  0  0  0
    6.8282   -1.7112    1.6110 C   0  0  0  0  0  0  0  0  0  0  0  0
    7.3232   -2.9963    2.2364 C   0  0  0  0  0  0  0  0  0  0  0  0
    5.8760   -2.8554    1.8683 C   0  0  0  0  0  0  0  0  0  0  0  0
    7.2690   -1.3471    0.2192 C   0  0  0  0  0  0  0  0  0  0  0  0
    5.2996    0.1427   -0.2957 C   0  0  0  0  0  0  0  0  0  0  0  0
    7.6413    0.8902   -0.6952 C   0  0  0  0  0  0  0  0  0  0  0  0
    4.6808    1.3967   -0.0973 C   0  0  0  0  0  0  0  0  0  0  0  0
    7.0842    2.1868   -1.2711 C   0  0  0  0  0  0  0  0  0  0  0  0
    4.4641   -0.9464   -0.6047 C   0  0  0  0  0  0  0  0  0  0  0  0
    5.4366    2.5986    0.3620 C   0  0  0  0  0  0  0  0  0  0  0  0
    3.2942    1.5556   -0.2810 C   0  0  0  0  0  0  0  0  0  0  0  0
    3.0783   -0.7949   -0.7382 C   0  0  0  0  0  0  0  0  0  0  0  0
    4.8965    3.4068    1.5082 C   0  0  0  0  0  0  0  0  0  0  0  0
    2.5016    0.4583   -0.5882 C   0  0  0  0  0  0  0  0  0  0  0  0
    4.1413    2.8129    2.5291 C   0  0  0  0  0  0  0  0  0  0  0  0
    5.1720    4.7793    1.5701 C   0  0  0  0  0  0  0  0  0  0  0  0
    3.6413    3.5895    3.5775 C   0  0  0  0  0  0  0  0  0  0  0  0
    4.6769    5.5511    2.6247 C   0  0  0  0  0  0  0  0  0  0  0  0
    3.9084    4.9567    3.6241 C   0  0  0  0  0  0  0  0  0  0  0  0
  1 18  1  0  0  0  0
  2 10  2  0  0  0  0
  3  8  1  0  0  0  0
  3  9  1  0  0  0  0
  3 10  1  0  0  0  0
  4 12  1  0  0  0  0
  4 14  2  0  0  0  0
  5  6  1  0  0  0  0
  5  7  1  0  0  0  0
  5  8  1  0  0  0  0
  6  7  1  0  0  0  0
  9 11  2  0  0  0  0
  9 13  1  0  0  0  0
 10 12  1  0  0  0  0
 11 14  1  0  0  0  0
 11 15  1  0  0  0  0
 13 16  2  0  0  0  0
 14 17  1  0  0  0  0
 15 18  2  0  0  0  0
 16 18  1  0  0  0  0
 17 19  2  0  0  0  0
 17 20  1  0  0  0  0
 19 21  1  0  0  0  0
 20 22  2  0  0  0  0
 21 23  2  0  0  0  0
 22 23  1  0  0  0  0
M  END
