635
 OpenBabel10141417483D

 26 29  0  0  1  0  0  0  0  0999 V2000
   17.9996   -8.7777  -18.8140 O   0  0  0  0  0  0  0  0  0  0  0  0
   18.3914   -5.2173  -14.6800 O   0  0  0  0  0  0  0  0  0  0  0  0
   16.2153   -5.9223  -19.9589 O   0  0  0  0  0  0  0  0  0  0  0  0
   15.0811   -8.9104  -19.5767 O   0  0  0  0  0  0  0  0  0  0  0  0
   20.5669   -2.9553  -11.6584 O   0  0  0  0  0  0  0  0  0  0  0  0
   18.5681   -6.5682  -17.8355 C   0  0  1  0  0  0  0  0  0  0  0  0
   19.1499   -5.3381  -18.5825 C   0  0  2  0  0  0  0  0  0  0  0  0
   19.8610   -4.2629  -17.7393 C   0  0  1  0  0  0  0  0  0  0  0  0
   18.8912   -3.7865  -16.6129 C   0  0  1  0  0  0  0  0  0  0  0  0
   17.9554   -7.3715  -19.0418 C   0  0  1  0  0  0  0  0  0  0  0  0
   19.8682   -5.9480  -19.7721 C   0  0  0  0  0  0  0  0  0  0  0  0
   17.5914   -6.0344  -16.7763 C   0  0  0  0  0  0  0  0  0  0  0  0
   18.9016   -7.0520  -20.2366 C   0  0  0  0  0  0  0  0  0  0  0  0
   19.5186   -2.6910  -15.6970 C   0  0  1  0  0  0  0  0  0  0  0  0
   21.2680   -4.6196  -17.2283 C   0  0  0  0  0  0  0  0  0  0  0  0
   18.3191   -5.0265  -15.8912 C   0  0  0  0  0  0  0  0  0  0  0  0
   19.5969   -7.4696  -17.1024 C   0  0  0  0  0  0  0  0  0  0  0  0
   21.8621   -3.5666  -16.2909 C   0  0  0  0  0  0  0  0  0  0  0  0
   20.8841   -3.1674  -15.2137 C   0  0  0  0  0  0  0  0  0  0  0  0
   16.4923   -6.9463  -19.3287 C   0  0  0  0  0  0  0  0  0  0  0  0
   19.6968   -1.3693  -16.4894 C   0  0  0  0  0  0  0  0  0  0  0  0
   18.5887   -2.3236  -14.5501 C   0  0  0  0  0  0  0  0  0  0  0  0
   21.2041   -3.2659  -13.9108 C   0  0  0  0  0  0  0  0  0  0  0  0
   15.3922   -7.8193  -18.7291 C   0  0  0  0  0  0  0  0  0  0  0  0
   18.9174   -2.4098  -13.2536 C   0  0  0  0  0  0  0  0  0  0  0  0
   20.2508   -2.8918  -12.8421 C   0  0  0  0  0  0  0  0  0  0  0  0
  2 16  2  0  0  0  0
  3 20  2  0  0  0  0
  4 24  1  0  0  0  0
  5 26  2  0  0  0  0
  6  7  1  0  0  0  0
  6 10  1  0  0  0  0
  6 12  1  0  0  0  0
  6 17  1  6  0  0  0
  7  8  1  0  0  0  0
  7 11  1  1  0  0  0
  8  9  1  0  0  0  0
  8 15  1  1  0  0  0
  9 14  1  0  0  0  0
  9 16  1  6  0  0  0
 10 13  1  0  0  0  0
 10  1  1  1  0  0  0
 10 20  1  0  0  0  0
 11 13  1  0  0  0  0
 12 16  1  0  0  0  0
 14 19  1  0  0  0  0
 14 22  1  0  0  0  0
 14 21  1  6  0  0  0
 15 18  1  0  0  0  0
 18 19  1  0  0  0  0
 19 23  2  0  0  0  0
 20 24  1  0  0  0  0
 22 25  2  0  0  0  0
 23 26  1  0  0  0  0
 25 26  1  0  0  0  0
M  END
