750
 OpenBabel10141417493D

 16 16  0  0  1  0  0  0  0  0999 V2000
    1.4309    0.0014   -1.0402 O   0  0  0  0  0  0  0  0  0  0  0  0
    2.9932    0.2883    2.0378 N   0  0  0  0  0  0  0  0  0  0  0  0
    3.7427    0.0054   -0.7657 N   0  0  0  0  0  0  0  0  0  0  0  0
    2.3288    1.0436    0.9436 C   0  0  3  0  0  0  0  0  0  0  0  0
    2.3495   -1.0110    2.2849 C   0  0  0  0  0  0  0  0  0  0  0  0
    3.0110   -1.6926    3.4877 C   0  0  0  0  0  0  0  0  0  0  0  0
    2.4314    0.3035   -0.4085 C   0  0  0  0  0  0  0  0  0  0  0  0
    2.9844    2.4196    0.8197 C   0  0  0  0  0  0  0  0  0  0  0  0
    4.0489   -0.7138   -1.9402 C   0  0  0  0  0  0  0  0  0  0  0  0
    3.7497   -0.2320   -3.2293 C   0  0  0  0  0  0  0  0  0  0  0  0
    2.4103   -3.0644    3.7623 C   0  0  0  0  0  0  0  0  0  0  0  0
    4.7350   -1.9261   -1.7911 C   0  0  0  0  0  0  0  0  0  0  0  0
    4.1212   -1.0053   -4.3441 C   0  0  0  0  0  0  0  0  0  0  0  0
    3.0849    1.0947   -3.4718 C   0  0  0  0  0  0  0  0  0  0  0  0
    5.0675   -2.6945   -2.9082 C   0  0  0  0  0  0  0  0  0  0  0  0
    4.7658   -2.2318   -4.1848 C   0  0  0  0  0  0  0  0  0  0  0  0
  1  7  2  0  0  0  0
  2  4  1  0  0  0  0
  2  5  1  0  0  0  0
  3  7  1  0  0  0  0
  3  9  1  0  0  0  0
  4  7  1  0  0  0  0
  4  8  1  0  0  0  0
  5  6  1  0  0  0  0
  6 11  1  0  0  0  0
  9 10  1  0  0  0  0
  9 12  2  0  0  0  0
 10 13  2  0  0  0  0
 10 14  1  0  0  0  0
 12 15  1  0  0  0  0
 13 16  1  0  0  0  0
 15 16  2  0  0  0  0
M  END
