
 OpenBabel10141417493D

 35 36  0  0  0  0  0  0  0  0999 V2000
   -1.9204   -5.8475   -3.1505 C   0  0  0  0  0  0  0  0  0  0  0  0
   -1.2316   -5.1838   -4.2031 C   0  0  0  0  0  0  0  0  0  0  0  0
   -0.8381   -3.2468   -2.8299 C   0  0  0  0  0  0  0  0  0  0  0  0
   -1.5774   -3.8336   -1.7945 C   0  0  0  0  0  0  0  0  0  0  0  0
   -0.6531   -3.8991   -4.0692 C   0  0  0  0  0  0  0  0  0  0  0  0
    0.7078   -1.8093   -4.7698 C   0  0  0  0  0  0  0  0  0  0  0  0
    1.3893   -4.0359   -5.6106 C   0  0  0  0  0  0  0  0  0  0  0  0
    0.1584   -3.1973   -5.1973 C   0  0  0  0  0  0  0  0  0  0  0  0
   -0.7024   -2.9474   -6.4557 C   0  0  0  0  0  0  0  0  0  0  0  0
   -2.0337   -5.1292   -1.9514 C   0  0  0  0  0  0  0  0  0  0  0  0
   -1.8428   -2.9604   -0.2630 S   0  0  0  0  0  0  0  0  0  0  0  0
   -4.1037   -1.6956    1.3361 S   0  0  0  0  0  0  0  0  0  0  0  0
   -3.1918   -0.1640    1.1854 C   0  0  0  0  0  0  0  0  0  0  0  0
   -1.8907   -0.0657    1.6641 C   0  0  0  0  0  0  0  0  0  0  0  0
   -1.7182    2.1483    0.7568 C   0  0  0  0  0  0  0  0  0  0  0  0
   -3.0714    2.1376    0.3445 C   0  0  0  0  0  0  0  0  0  0  0  0
   -1.0995    1.0781    1.4562 C   0  0  0  0  0  0  0  0  0  0  0  0
    0.4649    2.2960    3.0233 C   0  0  0  0  0  0  0  0  0  0  0  0
    0.7830   -0.1503    2.7523 C   0  0  0  0  0  0  0  0  0  0  0  0
    0.3485    1.1412    2.0050 C   0  0  0  0  0  0  0  0  0  0  0  0
    1.3925    1.3409    0.8834 C   0  0  0  0  0  0  0  0  0  0  0  0
   -3.7910    0.9522    0.5902 C   0  0  0  0  0  0  0  0  0  0  0  0
   -3.6803   -2.5819   -0.2749 C   0  0  0  0  0  0  0  0  0  0  0  0
   -3.7599    3.3422   -0.3510 C   0  0  0  0  0  0  0  0  0  0  0  0
   -3.0739    3.6760   -1.6948 C   0  0  0  0  0  0  0  0  0  0  0  0
   -5.2562    3.0832   -0.6718 C   0  0  0  0  0  0  0  0  0  0  0  0
   -3.7296    4.6006    0.5451 C   0  0  0  0  0  0  0  0  0  0  0  0
   -2.5320   -7.2649   -3.2685 C   0  0  0  0  0  0  0  0  0  0  0  0
   -3.6455   -7.2910   -4.3380 C   0  0  0  0  0  0  0  0  0  0  0  0
   -1.4733   -8.3204   -3.6333 C   0  0  0  0  0  0  0  0  0  0  0  0
   -3.1702   -7.7546   -1.9326 C   0  0  0  0  0  0  0  0  0  0  0  0
   -1.1241   -5.8267   -5.4035 O   0  0  0  0  0  0  0  0  0  0  0  0
   -0.9592    3.2441    0.4526 O   0  0  0  0  0  0  0  0  0  0  0  0
   -4.0896   -1.7191   -1.4728 C   0  0  0  0  0  0  0  0  0  0  0  0
   -4.5294   -3.8650   -0.2703 C   0  0  0  0  0  0  0  0  0  0  0  0
  1  2  2  0  0  0  0
  1 28  1  0  0  0  0
  2  5  1  0  0  0  0
  2 32  1  0  0  0  0
  3  4  1  0  0  0  0
  4 11  1  0  0  0  0
  5  3  2  0  0  0  0
  5  8  1  0  0  0  0
  8  6  1  0  0  0  0
  8  7  1  0  0  0  0
  8  9  1  0  0  0  0
 10  1  1  0  0  0  0
 10  4  2  0  0  0  0
 11 23  1  0  0  0  0
 12 13  1  0  0  0  0
 13 14  2  0  0  0  0
 14 17  1  0  0  0  0
 15 16  1  0  0  0  0
 15 33  1  0  0  0  0
 16 24  1  0  0  0  0
 17 15  2  0  0  0  0
 17 20  1  0  0  0  0
 20 18  1  0  0  0  0
 20 19  1  0  0  0  0
 20 21  1  0  0  0  0
 22 13  1  0  0  0  0
 22 16  2  0  0  0  0
 23 12  1  0  0  0  0
 24 25  1  0  0  0  0
 24 26  1  0  0  0  0
 24 27  1  0  0  0  0
 28 29  1  0  0  0  0
 28 30  1  0  0  0  0
 28 31  1  0  0  0  0
 34 23  1  0  0  0  0
 35 23  1  0  0  0  0
M  END
