1168
 OpenBabel10141417503D

 16 16  0  0  0  0  0  0  0  0999 V2000
    1.0862    0.7104   -0.4487 O   0  0  0  0  0  0  0  0  0  0  0  0
    1.3669   -1.1624    0.8580 N   0  0  0  0  0  0  0  0  0  0  0  0
    5.1415   -4.0330   -4.2880 N   0  0  0  0  0  0  0  0  0  0  0  0
    5.7919   -4.6758   -5.4151 N   0  0  0  0  0  0  0  0  0  0  0  0
    0.7923   -0.5982    2.0719 C   0  0  0  0  0  0  0  0  0  0  0  0
    3.3777   -2.4473   -3.6311 C   0  0  0  0  0  0  0  0  0  0  0  0
    2.1089   -1.1590   -1.4673 C   0  0  0  0  0  0  0  0  0  0  0  0
    1.4652   -0.4421   -0.3228 C   0  0  0  0  0  0  0  0  0  0  0  0
    4.0719   -3.1496   -4.7777 C   0  0  0  0  0  0  0  0  0  0  0  0
    0.2238   -1.7225    2.9346 C   0  0  0  0  0  0  0  0  0  0  0  0
    1.8203    0.2129    2.8606 C   0  0  0  0  0  0  0  0  0  0  0  0
    2.7124   -3.1903   -2.6456 C   0  0  0  0  0  0  0  0  0  0  0  0
    3.3721   -1.0482   -3.5421 C   0  0  0  0  0  0  0  0  0  0  0  0
    2.0821   -2.5507   -1.5752 C   0  0  0  0  0  0  0  0  0  0  0  0
    2.7382   -0.4058   -2.4701 C   0  0  0  0  0  0  0  0  0  0  0  0
    6.8045   -5.6017   -4.9132 C   0  0  0  0  0  0  0  0  0  0  0  0
  1  8  2  0  0  0  0
  2  5  1  0  0  0  0
  2  8  1  0  0  0  0
  3  4  1  0  0  0  0
  3  9  1  0  0  0  0
  4 16  1  0  0  0  0
  5 10  1  0  0  0  0
  5 11  1  0  0  0  0
  6  9  1  0  0  0  0
  6 12  2  0  0  0  0
  6 13  1  0  0  0  0
  7  8  1  0  0  0  0
  7 14  2  0  0  0  0
  7 15  1  0  0  0  0
 12 14  1  0  0  0  0
 13 15  2  0  0  0  0
M  END
