387
 OpenBabel10141417503D

 21 23  0  0  1  0  0  0  0  0999 V2000
    1.8332   -0.3677    0.9425 O   0  0  0  0  0  0  0  0  0  0  0  0
    2.4965    2.5229   -2.2087 N   0  0  0  0  0  0  0  0  0  0  0  0
    3.8906   -1.6040    0.4851 C   0  0  0  0  0  0  0  0  0  0  0  0
    3.2025   -0.1783    0.5621 C   0  0  3  0  0  0  0  0  0  0  0  0
    3.2542   -2.5993   -0.5249 C   0  0  0  0  0  0  0  0  0  0  0  0
    4.0649   -2.3124    1.8560 C   0  0  0  0  0  0  0  0  0  0  0  0
    3.2108    0.5373   -0.8329 C   0  0  0  0  0  0  0  0  0  0  0  0
    2.0626   -3.4057   -0.0072 C   0  0  0  0  0  0  0  0  0  0  0  0
    2.8481   -3.0940    2.3455 C   0  0  0  0  0  0  0  0  0  0  0  0
    2.3823   -4.1015    1.3058 C   0  0  0  0  0  0  0  0  0  0  0  0
    2.4987    1.9103   -0.8668 C   0  0  0  0  0  0  0  0  0  0  0  0
    3.8862    0.7424    1.5916 C   0  0  0  0  0  0  0  0  0  0  0  0
    1.8549    3.8472   -2.2003 C   0  0  0  0  0  0  0  0  0  0  0  0
    1.7532    1.7568   -3.2105 C   0  0  0  0  0  0  0  0  0  0  0  0
    1.4358    4.0916   -3.6483 C   0  0  0  0  0  0  0  0  0  0  0  0
    1.6236    2.7538   -4.3470 C   0  0  0  0  0  0  0  0  0  0  0  0
    5.2599    1.0506    1.5054 C   0  0  0  0  0  0  0  0  0  0  0  0
    3.1486    1.3571    2.6176 C   0  0  0  0  0  0  0  0  0  0  0  0
    5.8447    1.9749    2.3793 C   0  0  0  0  0  0  0  0  0  0  0  0
    3.7365    2.2675    3.5000 C   0  0  0  0  0  0  0  0  0  0  0  0
    5.0865    2.5885    3.3674 C   0  0  0  0  0  0  0  0  0  0  0  0
  1  4  1  0  0  0  0
  2 11  1  0  0  0  0
  2 13  1  0  0  0  0
  2 14  1  0  0  0  0
  3  4  1  0  0  0  0
  3  5  1  0  0  0  0
  3  6  1  0  0  0  0
  4  7  1  0  0  0  0
  4 12  1  0  0  0  0
  5  8  1  0  0  0  0
  6  9  1  0  0  0  0
  7 11  1  0  0  0  0
  8 10  1  0  0  0  0
  9 10  1  0  0  0  0
 12 17  2  0  0  0  0
 12 18  1  0  0  0  0
 13 15  1  0  0  0  0
 14 16  1  0  0  0  0
 15 16  1  0  0  0  0
 17 19  1  0  0  0  0
 18 20  2  0  0  0  0
 19 21  2  0  0  0  0
 20 21  1  0  0  0  0
M  END
