1366
 OpenBabel10141417513D

 21 22  0  0  1  0  0  0  0  0999 V2000
    2.2012    0.5186    0.2121 O   0  0  0  0  0  0  0  0  0  0  0  0
    0.2172    2.0047    5.9890 O   0  0  0  0  0  0  0  0  0  0  0  0
    4.6977    0.9384    7.6571 O   0  0  0  0  0  0  0  0  0  0  0  0
    4.9479    0.9943   -0.5532 N   0  0  0  0  0  0  0  0  0  0  0  0
    2.8967    1.2449    6.3013 N   0  0  0  0  0  0  0  0  0  0  0  0
    4.3706    1.5950    0.6900 C   0  0  2  0  0  0  0  0  0  0  0  0
    3.1954    0.6620    1.2495 C   0  0  1  0  0  0  0  0  0  0  0  0
    3.9727    3.0752    0.4754 C   0  0  0  0  0  0  0  0  0  0  0  0
    2.4795    1.0073    2.5770 C   0  0  0  0  0  0  0  0  0  0  0  0
    6.0275    1.7483   -1.2276 C   0  0  0  0  0  0  0  0  0  0  0  0
    3.0833    0.9718    3.8646 C   0  0  0  0  0  0  0  0  0  0  0  0
    2.9803    3.3643   -0.6472 C   0  0  0  0  0  0  0  0  0  0  0  0
    1.0867    1.2828    2.5367 C   0  0  0  0  0  0  0  0  0  0  0  0
    2.3095    1.2772    5.0235 C   0  0  0  0  0  0  0  0  0  0  0  0
    7.2662    1.9891   -0.3615 C   0  0  0  0  0  0  0  0  0  0  0  0
    6.4323    0.9754   -2.4884 C   0  0  0  0  0  0  0  0  0  0  0  0
    0.9584    1.6038    4.9131 C   0  0  0  0  0  0  0  0  0  0  0  0
    4.4981    0.6420    4.1051 C   0  0  0  0  0  0  0  0  0  0  0  0
    0.3351    1.5688    3.6820 C   0  0  0  0  0  0  0  0  0  0  0  0
    5.0474    0.7108    5.3242 C   0  0  0  0  0  0  0  0  0  0  0  0
    4.2197    0.9795    6.5382 C   0  0  0  0  0  0  0  0  0  0  0  0
  2 17  1  0  0  0  0
  3 21  2  0  0  0  0
  4 10  1  0  0  0  0
  5 14  1  0  0  0  0
  5 21  1  0  0  0  0
  6  4  1  6  0  0  0
  6  7  1  0  0  0  0
  6  8  1  0  0  0  0
  7  1  1  6  0  0  0
  7  9  1  0  0  0  0
  8 12  1  0  0  0  0
  9 11  2  0  0  0  0
  9 13  1  0  0  0  0
 10 15  1  0  0  0  0
 10 16  1  0  0  0  0
 11 14  1  0  0  0  0
 11 18  1  0  0  0  0
 13 19  2  0  0  0  0
 14 17  2  0  0  0  0
 17 19  1  0  0  0  0
 18 20  2  0  0  0  0
 20 21  1  0  0  0  0
M  END
