433
 OpenBabel10141417493D

 25 28  0  0  0  0  0  0  0  0999 V2000
    5.8637   -3.0368   -5.2700 Cl  0  0  0  0  0  0  0  0  0  0  0  0
    8.4249   -0.3547   -0.2127 S   0  0  0  0  0  0  0  0  0  0  0  0
    3.6227   -5.9741    1.3247 N   0  0  0  0  0  0  0  0  0  0  0  0
    3.5518   -8.6075    2.8587 N   0  0  0  0  0  0  0  0  0  0  0  0
    6.1331   -2.5406   -0.1073 N   0  0  0  0  0  0  0  0  0  0  0  0
    4.3117   -6.1748    2.6206 C   0  0  0  0  0  0  0  0  0  0  0  0
    2.5190   -6.9626    1.2275 C   0  0  0  0  0  0  0  0  0  0  0  0
    4.5206   -6.0670    0.1616 C   0  0  0  0  0  0  0  0  0  0  0  0
    4.6518   -7.6367    3.0090 C   0  0  0  0  0  0  0  0  0  0  0  0
    2.9261   -8.4258    1.5356 C   0  0  0  0  0  0  0  0  0  0  0  0
    5.5839   -4.9603    0.0635 C   0  0  0  0  0  0  0  0  0  0  0  0
    5.0206   -3.5334   -0.0367 C   0  0  0  0  0  0  0  0  0  0  0  0
    2.5669   -8.4775    3.9337 C   0  0  0  0  0  0  0  0  0  0  0  0
    6.6151   -2.1624   -1.3987 C   0  0  0  0  0  0  0  0  0  0  0  0
    6.6689   -2.0854    1.1403 C   0  0  0  0  0  0  0  0  0  0  0  0
    7.6410   -1.2054   -1.5590 C   0  0  0  0  0  0  0  0  0  0  0  0
    7.6792   -1.1099    1.2094 C   0  0  0  0  0  0  0  0  0  0  0  0
    6.1009   -2.7187   -2.5939 C   0  0  0  0  0  0  0  0  0  0  0  0
    6.2158   -2.5890    2.3845 C   0  0  0  0  0  0  0  0  0  0  0  0
    8.1134   -0.8411   -2.8397 C   0  0  0  0  0  0  0  0  0  0  0  0
    8.1741   -0.6537    2.4526 C   0  0  0  0  0  0  0  0  0  0  0  0
    6.5628   -2.3357   -3.8605 C   0  0  0  0  0  0  0  0  0  0  0  0
    6.7167   -2.1427    3.6158 C   0  0  0  0  0  0  0  0  0  0  0  0
    7.5720   -1.4017   -3.9899 C   0  0  0  0  0  0  0  0  0  0  0  0
    7.6891   -1.1685    3.6511 C   0  0  0  0  0  0  0  0  0  0  0  0
  1 22  1  0  0  0  0
  2 16  1  0  0  0  0
  2 17  1  0  0  0  0
  3  6  1  0  0  0  0
  3  7  1  0  0  0  0
  3  8  1  0  0  0  0
  4  9  1  0  0  0  0
  4 10  1  0  0  0  0
  4 13  1  0  0  0  0
  5 12  1  0  0  0  0
  5 14  1  0  0  0  0
  5 15  1  0  0  0  0
  6  9  1  0  0  0  0
  7 10  1  0  0  0  0
  8 11  1  0  0  0  0
 11 12  1  0  0  0  0
 14 16  2  0  0  0  0
 14 18  1  0  0  0  0
 15 17  1  0  0  0  0
 15 19  2  0  0  0  0
 16 20  1  0  0  0  0
 17 21  2  0  0  0  0
 18 22  2  0  0  0  0
 19 23  1  0  0  0  0
 20 24  2  0  0  0  0
 21 25  1  0  0  0  0
 22 24  1  0  0  0  0
 23 25  2  0  0  0  0
M  END
