1123
 OpenBabel10141417543D

 16 18  0  0  0  0  0  0  0  0999 V2000
    0.0129   -1.3408    0.0114 N   0  0  0  0  0  0  0  0  0  0  0  0
   -4.7799   -1.4608    0.1669 N   0  0  0  0  0  0  0  0  0  0  0  0
    4.8066   -1.4118    0.1713 N   0  0  0  0  0  0  0  0  0  0  0  0
   -1.2096    0.7371   -0.0236 C   0  0  0  0  0  0  0  0  0  0  0  0
    1.2137    0.7494   -0.0247 C   0  0  0  0  0  0  0  0  0  0  0  0
   -1.1539   -0.6677    0.0024 C   0  0  0  0  0  0  0  0  0  0  0  0
    1.1726   -0.6556    0.0025 C   0  0  0  0  0  0  0  0  0  0  0  0
   -0.0015    1.4410   -0.0420 C   0  0  0  0  0  0  0  0  0  0  0  0
   -2.4471    1.3982   -0.0069 C   0  0  0  0  0  0  0  0  0  0  0  0
    2.4448    1.4227   -0.0093 C   0  0  0  0  0  0  0  0  0  0  0  0
   -2.3548   -1.3686    0.0327 C   0  0  0  0  0  0  0  0  0  0  0  0
    2.3809   -1.3449    0.0333 C   0  0  0  0  0  0  0  0  0  0  0  0
   -3.5991   -0.7271   -0.0033 C   0  0  0  0  0  0  0  0  0  0  0  0
    3.6184   -0.6906   -0.0022 C   0  0  0  0  0  0  0  0  0  0  0  0
   -3.6323    0.6650    0.0270 C   0  0  0  0  0  0  0  0  0  0  0  0
    3.6374    0.7019    0.0258 C   0  0  0  0  0  0  0  0  0  0  0  0
  1  6  2  0  0  0  0
  1  7  1  0  0  0  0
  2 13  1  0  0  0  0
  3 14  1  0  0  0  0
  4  6  1  0  0  0  0
  4  8  2  0  0  0  0
  4  9  1  0  0  0  0
  5  7  2  0  0  0  0
  5  8  1  0  0  0  0
  5 10  1  0  0  0  0
  6 11  1  0  0  0  0
  7 12  1  0  0  0  0
  9 15  2  0  0  0  0
 10 16  2  0  0  0  0
 11 13  2  0  0  0  0
 12 14  2  0  0  0  0
 13 15  1  0  0  0  0
 14 16  1  0  0  0  0
M  END
