396
 OpenBabel10141417483D

 23 26  0  0  1  0  0  0  0  0999 V2000
    5.8468   17.3750    6.5891 O   0  0  0  0  0  0  0  0  0  0  0  0
    1.2918    7.8702    7.0867 O   0  0  0  0  0  0  0  0  0  0  0  0
    2.3286   15.4105    4.7648 C   0  0  2  0  0  0  0  0  0  0  0  0
    3.8729   15.4158    4.8925 C   0  0  1  0  0  0  0  0  0  0  0  0
    1.6000   14.0872    5.1684 C   0  0  1  0  0  0  0  0  0  0  0  0
    2.3083   12.8178    4.6206 C   0  0  1  0  0  0  0  0  0  0  0  0
    1.5526   11.5045    5.0507 C   0  0  2  0  0  0  0  0  0  0  0  0
    4.0486   15.7649    6.3887 C   0  0  2  0  0  0  0  0  0  0  0  0
    4.5005   14.0872    4.4540 C   0  0  0  0  0  0  0  0  0  0  0  0
    3.8083   12.8397    4.9822 C   0  0  0  0  0  0  0  0  0  0  0  0
    1.8992   16.6435    5.5776 C   0  0  0  0  0  0  0  0  0  0  0  0
    1.1226   13.9317    6.6367 C   0  0  0  0  0  0  0  0  0  0  0  0
    2.9743   16.8357    6.6564 C   0  0  0  0  0  0  0  0  0  0  0  0
    1.4958   11.3913    6.5664 C   0  0  0  0  0  0  0  0  0  0  0  0
    4.4769   16.5162    3.9780 C   0  0  0  0  0  0  0  0  0  0  0  0
    1.5547   12.6628    7.3723 C   0  0  0  0  0  0  0  0  0  0  0  0
    2.2538   10.2404    4.4797 C   0  0  0  0  0  0  0  0  0  0  0  0
    0.0990   11.5392    4.5021 C   0  0  0  0  0  0  0  0  0  0  0  0
    5.4433   16.2311    6.7968 C   0  0  0  0  0  0  0  0  0  0  0  0
    1.6293    8.9322    4.9618 C   0  0  0  0  0  0  0  0  0  0  0  0
    1.4479   10.2048    7.1996 C   0  0  0  0  0  0  0  0  0  0  0  0
    1.4549    8.9168    6.4625 C   0  0  0  0  0  0  0  0  0  0  0  0
    6.3198   15.2206    7.4920 C   0  0  0  0  0  0  0  0  0  0  0  0
  1 19  2  0  0  0  0
  2 22  2  0  0  0  0
  3  4  1  0  0  0  0
  3  5  1  0  0  0  0
  3 11  1  6  0  0  0
  4  8  1  0  0  0  0
  4  9  1  0  0  0  0
  4 15  1  6  0  0  0
  5  6  1  0  0  0  0
  5 12  1  1  0  0  0
  6  7  1  0  0  0  0
  6 10  1  6  0  0  0
  7 14  1  0  0  0  0
  7 17  1  0  0  0  0
  7 18  1  6  0  0  0
  8 13  1  0  0  0  0
  8 19  1  6  0  0  0
  9 10  1  0  0  0  0
 11 13  1  0  0  0  0
 12 16  1  0  0  0  0
 14 16  1  0  0  0  0
 14 21  2  0  0  0  0
 17 20  1  0  0  0  0
 19 23  1  0  0  0  0
 20 22  1  0  0  0  0
 21 22  1  0  0  0  0
M  END
