837
 OpenBabel10141417503D

 23 24  0  0  0  0  0  0  0  0999 V2000
    0.7904   -0.7734    0.1078 Cl  0  0  0  0  0  0  0  0  0  0  0  0
   11.0579   -1.9830   -0.9743 F   0  0  0  0  0  0  0  0  0  0  0  0
    5.8452   -2.6414   -1.9577 O   0  0  0  0  0  0  0  0  0  0  0  0
    8.9540    3.6026    4.1899 O   0  0  0  0  0  0  0  0  0  0  0  0
    7.1949    1.2833   -0.5646 N   0  0  0  0  0  0  0  0  0  0  0  0
    7.1431    2.4612    4.9156 N   0  0  0  0  0  0  0  0  0  0  0  0
    6.7390    2.3015    0.3658 C   0  0  0  0  0  0  0  0  0  0  0  0
    7.4590    2.1468    1.7077 C   0  0  0  0  0  0  0  0  0  0  0  0
    6.7046   -0.0118   -0.7637 C   0  0  0  0  0  0  0  0  0  0  0  0
    7.1285    3.3106    2.6388 C   0  0  0  0  0  0  0  0  0  0  0  0
    7.4946   -1.0706   -1.0974 C   0  0  0  0  0  0  0  0  0  0  0  0
    5.2377   -0.1857   -0.5562 C   0  0  0  0  0  0  0  0  0  0  0  0
    8.9597   -0.9836   -1.0964 C   0  0  0  0  0  0  0  0  0  0  0  0
    6.9281   -2.4402   -1.4378 C   0  0  0  0  0  0  0  0  0  0  0  0
    4.7374   -0.5149    0.7155 C   0  0  0  0  0  0  0  0  0  0  0  0
    4.3295   -0.0341   -1.6153 C   0  0  0  0  0  0  0  0  0  0  0  0
    7.8361    3.1620    3.9679 C   0  0  0  0  0  0  0  0  0  0  0  0
    9.7159   -2.0861   -1.0277 C   0  0  0  0  0  0  0  0  0  0  0  0
    7.8346   -3.5972   -1.1797 C   0  0  0  0  0  0  0  0  0  0  0  0
    3.3640   -0.6991    0.9199 C   0  0  0  0  0  0  0  0  0  0  0  0
    2.9544   -0.2125   -1.4104 C   0  0  0  0  0  0  0  0  0  0  0  0
    9.1410   -3.4013   -0.9727 C   0  0  0  0  0  0  0  0  0  0  0  0
    2.4787   -0.5471   -0.1448 C   0  0  0  0  0  0  0  0  0  0  0  0
  1 23  1  0  0  0  0
  2 18  1  0  0  0  0
  3 14  2  0  0  0  0
  4 17  2  0  0  0  0
  5  7  1  0  0  0  0
  5  9  1  0  0  0  0
  6 17  1  0  0  0  0
  7  8  1  0  0  0  0
  8 10  1  0  0  0  0
  9 11  2  0  0  0  0
  9 12  1  0  0  0  0
 10 17  1  0  0  0  0
 11 13  1  0  0  0  0
 11 14  1  0  0  0  0
 12 15  2  0  0  0  0
 12 16  1  0  0  0  0
 13 18  2  0  0  0  0
 14 19  1  0  0  0  0
 15 20  1  0  0  0  0
 16 21  2  0  0  0  0
 18 22  1  0  0  0  0
 19 22  2  0  0  0  0
 20 23  2  0  0  0  0
 21 23  1  0  0  0  0
M  END
