420
 OpenBabel10141417493D

 20 22  0  0  0  0  0  0  0  0999 V2000
    0.1141   -2.1005    0.2063 S   0  0  0  0  0  0  0  0  0  0  0  0
   -0.0740    1.0473   -0.0932 N   0  0  0  0  0  0  0  0  0  0  0  0
   -1.4708    5.1947    0.6365 N   0  0  0  0  0  0  0  0  0  0  0  0
   -0.1679    2.5328   -0.1157 C   0  0  0  0  0  0  0  0  0  0  0  0
   -0.2103    3.1045    1.3073 C   0  0  0  0  0  0  0  0  0  0  0  0
   -0.2872    4.6386    1.3167 C   0  0  0  0  0  0  0  0  0  0  0  0
    1.2339    0.4733   -0.0426 C   0  0  0  0  0  0  0  0  0  0  0  0
   -1.3040    0.3181   -0.0645 C   0  0  0  0  0  0  0  0  0  0  0  0
    1.4300   -0.9212    0.0650 C   0  0  0  0  0  0  0  0  0  0  0  0
   -1.3332   -1.0885    0.0570 C   0  0  0  0  0  0  0  0  0  0  0  0
    2.4155    1.2479   -0.1130 C   0  0  0  0  0  0  0  0  0  0  0  0
   -2.5691    0.9413   -0.1726 C   0  0  0  0  0  0  0  0  0  0  0  0
    2.7248   -1.4803    0.0845 C   0  0  0  0  0  0  0  0  0  0  0  0
   -2.5529   -1.7966    0.0672 C   0  0  0  0  0  0  0  0  0  0  0  0
   -2.7171    4.8055    1.3012 C   0  0  0  0  0  0  0  0  0  0  0  0
   -1.3843    6.6588    0.5910 C   0  0  0  0  0  0  0  0  0  0  0  0
    3.7001    0.6890   -0.0965 C   0  0  0  0  0  0  0  0  0  0  0  0
   -3.7779    0.2358   -0.1754 C   0  0  0  0  0  0  0  0  0  0  0  0
    3.8570   -0.6830   -0.0001 C   0  0  0  0  0  0  0  0  0  0  0  0
   -3.7709   -1.1427   -0.0530 C   0  0  0  0  0  0  0  0  0  0  0  0
  1  9  1  0  0  0  0
  1 10  1  0  0  0  0
  2  4  1  0  0  0  0
  2  7  1  0  0  0  0
  2  8  1  0  0  0  0
  3  6  1  0  0  0  0
  3 15  1  0  0  0  0
  3 16  1  0  0  0  0
  4  5  1  0  0  0  0
  5  6  1  0  0  0  0
  7  9  1  0  0  0  0
  7 11  2  0  0  0  0
  8 10  1  0  0  0  0
  8 12  2  0  0  0  0
  9 13  2  0  0  0  0
 10 14  2  0  0  0  0
 11 17  1  0  0  0  0
 12 18  1  0  0  0  0
 13 19  1  0  0  0  0
 14 20  1  0  0  0  0
 17 19  2  0  0  0  0
 18 20  2  0  0  0  0
M  END
