1608
 OpenBabel10141417523D

 26 29  0  0  0  0  0  0  0  0999 V2000
   -1.5653   -1.8033   -0.4144 S   0  0  0  0  0  0  0  0  0  0  0  0
   -0.6541    7.6137    4.2240 O   0  0  0  0  0  0  0  0  0  0  0  0
   -0.0813    5.2370    1.5208 N   0  0  0  0  0  0  0  0  0  0  0  0
   -0.3936    1.1254   -0.0577 N   0  0  0  0  0  0  0  0  0  0  0  0
   -0.4481    1.2747    5.9324 N   0  0  0  0  0  0  0  0  0  0  0  0
   -0.8877    4.9943    2.7259 C   0  0  0  0  0  0  0  0  0  0  0  0
    0.5196    6.5815    1.6005 C   0  0  0  0  0  0  0  0  0  0  0  0
   -1.3984    7.4449    3.0176 C   0  0  0  0  0  0  0  0  0  0  0  0
   -1.9803    6.0368    2.9636 C   0  0  0  0  0  0  0  0  0  0  0  0
   -0.4834    7.7185    1.8259 C   0  0  0  0  0  0  0  0  0  0  0  0
   -0.7925    4.9785    0.2609 C   0  0  0  0  0  0  0  0  0  0  0  0
   -1.1849    3.4965    0.0865 C   0  0  0  0  0  0  0  0  0  0  0  0
    0.0264    2.5489    0.0983 C   0  0  0  0  0  0  0  0  0  0  0  0
   -0.6980    0.3891    1.1322 C   0  0  0  0  0  0  0  0  0  0  0  0
   -0.5410    0.6322   -1.3944 C   0  0  0  0  0  0  0  0  0  0  0  0
   -1.2098   -0.9263    1.0825 C   0  0  0  0  0  0  0  0  0  0  0  0
   -1.0531   -0.6552   -1.6622 C   0  0  0  0  0  0  0  0  0  0  0  0
   -0.4977    0.9133    2.4323 C   0  0  0  0  0  0  0  0  0  0  0  0
   -0.1733    1.3855   -2.5344 C   0  0  0  0  0  0  0  0  0  0  0  0
   -1.4984   -1.6532    2.2576 C   0  0  0  0  0  0  0  0  0  0  0  0
   -1.2009   -1.1306   -2.9831 C   0  0  0  0  0  0  0  0  0  0  0  0
   -0.7977    0.1915    3.6026 C   0  0  0  0  0  0  0  0  0  0  0  0
   -0.3030    0.9015   -3.8448 C   0  0  0  0  0  0  0  0  0  0  0  0
   -1.2990   -1.0975    3.5136 C   0  0  0  0  0  0  0  0  0  0  0  0
   -0.8271   -0.3571   -4.0718 C   0  0  0  0  0  0  0  0  0  0  0  0
   -0.5958    0.7911    4.8928 C   0  0  0  0  0  0  0  0  0  0  0  0
  1 16  1  0  0  0  0
  1 17  1  0  0  0  0
  2  8  1  0  0  0  0
  3  6  1  0  0  0  0
  3  7  1  0  0  0  0
  3 11  1  0  0  0  0
  4 13  1  0  0  0  0
  4 14  1  0  0  0  0
  4 15  1  0  0  0  0
  5 26  3  0  0  0  0
  6  9  1  0  0  0  0
  7 10  1  0  0  0  0
  8  9  1  0  0  0  0
  8 10  1  0  0  0  0
 11 12  1  0  0  0  0
 12 13  1  0  0  0  0
 14 16  2  0  0  0  0
 14 18  1  0  0  0  0
 15 17  1  0  0  0  0
 15 19  2  0  0  0  0
 16 20  1  0  0  0  0
 17 21  2  0  0  0  0
 18 22  2  0  0  0  0
 19 23  1  0  0  0  0
 20 24  2  0  0  0  0
 21 25  1  0  0  0  0
 22 24  1  0  0  0  0
 22 26  1  0  0  0  0
 23 25  2  0  0  0  0
M  END
