550
 OpenBabel10141417473D

 11 11  0  0  0  0  0  0  0  0999 V2000
    0.5911    0.0130    0.2075 S   0  0  0  0  0  0  0  0  0  0  0  0
    4.5823    2.8996    0.1035 O   0  0  0  0  0  0  0  0  0  0  0  0
    3.1070   -0.7941    0.0767 N   0  0  0  0  0  0  0  0  0  0  0  0
    2.7818    1.5026    0.1625 N   0  0  0  0  0  0  0  0  0  0  0  0
    5.3060   -1.9018   -0.0320 C   0  0  0  0  0  0  0  0  0  0  0  0
    4.4745   -0.6459    0.0406 C   0  0  0  0  0  0  0  0  0  0  0  0
    5.1877   -2.7561    1.2338 C   0  0  0  0  0  0  0  0  0  0  0  0
    5.0095    0.5830    0.0487 C   0  0  0  0  0  0  0  0  0  0  0  0
    6.0399   -4.0122    1.1382 C   0  0  0  0  0  0  0  0  0  0  0  0
    2.2340    0.2540    0.1461 C   0  0  0  0  0  0  0  0  0  0  0  0
    4.1237    1.7640    0.1071 C   0  0  0  0  0  0  0  0  0  0  0  0
  1 10  2  0  0  0  0
  2 11  2  0  0  0  0
  3  6  1  0  0  0  0
  3 10  1  0  0  0  0
  4 10  1  0  0  0  0
  4 11  1  0  0  0  0
  5  6  1  0  0  0  0
  5  7  1  0  0  0  0
  6  8  2  0  0  0  0
  7  9  1  0  0  0  0
  8 11  1  0  0  0  0
M  END
