
 OpenBabel10141417483D

 12 12  0  0  0  0  0  0  0  0999 V2000
   -0.6038    1.2102    0.0279 C   0  0  0  0  0  0  0  0  0  0  0  0
   -1.3544    0.0360   -0.0052 C   0  0  0  0  0  0  0  0  0  0  0  0
    0.7428    1.2604    0.0241 N   0  0  0  0  0  0  0  0  0  0  0  0
   -0.6624   -1.1982   -0.0367 C   0  0  0  0  0  0  0  0  0  0  0  0
    0.7416   -1.1521   -0.0386 C   0  0  0  0  0  0  0  0  0  0  0  0
    1.4034    0.0774   -0.0086 C   0  0  0  0  0  0  0  0  0  0  0  0
   -2.8547    0.1355    0.0078 C   0  0  0  0  0  0  0  0  0  0  0  0
   -3.4069   -0.4558   -1.1599 O   0  0  0  0  0  0  0  0  0  0  0  0
    2.9026    0.1442   -0.0065 C   0  0  0  0  0  0  0  0  0  0  0  0
    1.5020   -2.2911   -0.0700 O   0  0  0  0  0  0  0  0  0  0  0  0
   -1.4495   -2.4904   -0.0632 C   0  0  0  0  0  0  0  0  0  0  0  0
   -0.6073   -3.6452   -0.0887 O   0  0  0  0  0  0  0  0  0  0  0  0
  1  3  2  0  0  0  0
  2  1  1  0  0  0  0
  4  2  2  0  0  0  0
  5  4  1  0  0  0  0
  6  3  1  0  0  0  0
  6  5  2  0  0  0  0
  7  2  1  0  0  0  0
  8  7  1  0  0  0  0
  9  6  1  0  0  0  0
 10  5  1  0  0  0  0
 11  4  1  0  0  0  0
 11 12  1  0  0  0  0
M  END
