545
 OpenBabel10141418363D

 13 13  0  0  0  0  0  0  0  0999 V2000
    0.4291    0.1288    0.0695 O   0  0  0  0  0  0  0  0  0  0  0  0
    2.6160    0.8055   -0.2396 O   0  0  0  0  0  0  0  0  0  0  0  0
   -0.0802    3.7855    0.1879 N   0  3  0  0  0  0  0  0  0  0  0  0
    2.1029   -1.4467   -0.1992 N   0  0  0  0  0  0  0  0  0  0  0  0
   -0.1142    1.4101    0.2881 C   0  0  0  0  0  0  0  0  0  0  0  0
    0.4938    2.5963   -0.1061 C   0  0  0  0  0  0  0  0  0  0  0  0
   -1.2707    3.8451    0.8278 C   0  0  0  0  0  0  0  0  0  0  0  0
   -1.3455    1.4472    0.9323 C   0  0  0  0  0  0  0  0  0  0  0  0
   -1.9299    2.6786    1.2041 C   0  0  0  0  0  0  0  0  0  0  0  0
    0.6021    5.0304   -0.2000 C   0  0  0  0  0  0  0  0  0  0  0  0
    1.7941   -0.1033   -0.1398 C   0  0  0  0  0  0  0  0  0  0  0  0
    1.1173   -2.5002   -0.0113 C   0  0  0  0  0  0  0  0  0  0  0  0
    3.4894   -1.8681   -0.3054 C   0  0  0  0  0  0  0  0  0  0  0  0
  1  5  1  0  0  0  0
  1 11  1  0  0  0  0
  2 11  2  0  0  0  0
  3  6  1  0  0  0  0
  3  7  2  0  0  0  0
  3 10  1  0  0  0  0
  4 11  1  0  0  0  0
  4 12  1  0  0  0  0
  4 13  1  0  0  0  0
  5  6  2  0  0  0  0
  5  8  1  0  0  0  0
  7  9  1  0  0  0  0
  8  9  2  0  0  0  0
M  CHG  1   3   1
M  END
