1224
 OpenBabel10141417523D

 27 30  0  0  0  0  0  0  0  0999 V2000
    0.7136   -0.1467   -1.3021 S   0  0  0  0  0  0  0  0  0  0  0  0
   -4.2887    4.5846   -2.3312 O   0  0  0  0  0  0  0  0  0  0  0  0
   -7.2540    3.6740   -4.2820 O   0  0  0  0  0  0  0  0  0  0  0  0
   -2.2093    5.4206    0.6973 N   0  0  0  0  0  0  0  0  0  0  0  0
   -0.1240    3.3111    1.1099 N   0  0  0  0  0  0  0  0  0  0  0  0
    1.8115    2.4846    0.0712 N   0  0  0  0  0  0  0  0  0  0  0  0
   -0.7754    5.7651    0.8256 C   0  0  0  0  0  0  0  0  0  0  0  0
   -2.4267    4.2698    1.5901 C   0  0  0  0  0  0  0  0  0  0  0  0
    0.2126    4.6258    0.4961 C   0  0  0  0  0  0  0  0  0  0  0  0
   -1.5718    3.0311    1.2716 C   0  0  0  0  0  0  0  0  0  0  0  0
   -2.5637    5.1390   -0.7117 C   0  0  0  0  0  0  0  0  0  0  0  0
    0.7472    2.2375    0.7872 C   0  0  0  0  0  0  0  0  0  0  0  0
   -4.0516    4.8167   -0.9375 C   0  0  0  0  0  0  0  0  0  0  0  0
    0.3906    0.8616    1.2866 C   0  0  0  0  0  0  0  0  0  0  0  0
    0.2102   -0.2163    0.4072 C   0  0  0  0  0  0  0  0  0  0  0  0
    0.1387    0.6978    2.6552 C   0  0  0  0  0  0  0  0  0  0  0  0
    2.7455    1.5044   -0.3200 C   0  0  0  0  0  0  0  0  0  0  0  0
    2.4189    0.3023   -0.9773 C   0  0  0  0  0  0  0  0  0  0  0  0
   -0.3012   -1.4243    0.8988 C   0  0  0  0  0  0  0  0  0  0  0  0
   -5.6584    4.2505   -2.5656 C   0  0  0  0  0  0  0  0  0  0  0  0
   -0.3613   -0.5123    3.1363 C   0  0  0  0  0  0  0  0  0  0  0  0
   -0.5996   -1.5656    2.2550 C   0  0  0  0  0  0  0  0  0  0  0  0
    4.0965    1.7990   -0.1023 C   0  0  0  0  0  0  0  0  0  0  0  0
    3.4287   -0.6060   -1.3291 C   0  0  0  0  0  0  0  0  0  0  0  0
   -5.8876    3.9969   -4.0504 C   0  0  0  0  0  0  0  0  0  0  0  0
    5.1018    0.8993   -0.4643 C   0  0  0  0  0  0  0  0  0  0  0  0
    4.7663   -0.3104   -1.0648 C   0  0  0  0  0  0  0  0  0  0  0  0
  1 15  1  0  0  0  0
  1 18  1  0  0  0  0
  2 13  1  0  0  0  0
  2 20  1  0  0  0  0
  3 25  1  0  0  0  0
  4  7  1  0  0  0  0
  4  8  1  0  0  0  0
  4 11  1  0  0  0  0
  5  9  1  0  0  0  0
  5 10  1  0  0  0  0
  5 12  1  0  0  0  0
  6 12  2  0  0  0  0
  6 17  1  0  0  0  0
  7  9  1  0  0  0  0
  8 10  1  0  0  0  0
 11 13  1  0  0  0  0
 12 14  1  0  0  0  0
 14 15  1  0  0  0  0
 14 16  2  0  0  0  0
 15 19  2  0  0  0  0
 16 21  1  0  0  0  0
 17 18  1  0  0  0  0
 17 23  2  0  0  0  0
 18 24  2  0  0  0  0
 19 22  1  0  0  0  0
 20 25  1  0  0  0  0
 21 22  2  0  0  0  0
 23 26  1  0  0  0  0
 24 27  1  0  0  0  0
 26 27  2  0  0  0  0
M  END
