4575
 OpenBabel10141417483D

 27 31  0  0  1  0  0  0  0  0999 V2000
    1.0997   -0.6791   -0.5167 O   0  0  0  0  0  0  0  0  0  0  0  0
   -2.1743   -8.8781   -2.7568 O   0  0  0  0  0  0  0  0  0  0  0  0
    2.6442   -1.8178   -2.0645 C   0  0  1  0  0  0  0  0  0  0  0  0
    2.9942   -3.0722   -1.1804 C   0  0  2  0  0  0  0  0  0  0  0  0
    2.1455   -4.3418   -1.3298 C   0  0  1  0  0  0  0  0  0  0  0  0
    2.4507   -0.6757   -0.9981 C   0  0  2  0  0  0  0  0  0  0  0  0
    0.7127   -4.0574   -1.8063 C   0  0  2  0  0  0  0  0  0  0  0  0
    1.4097   -1.9191   -3.0040 C   0  0  0  0  0  0  0  0  0  0  0  0
    3.0142   -2.5828    0.2805 C   0  0  0  0  0  0  0  0  0  0  0  0
    0.7196   -3.2690   -3.1176 C   0  0  0  0  0  0  0  0  0  0  0  0
    3.3300   -1.1007    0.1752 C   0  0  0  0  0  0  0  0  0  0  0  0
    2.8388   -5.3407   -2.2718 C   0  0  0  0  0  0  0  0  0  0  0  0
    3.8879   -1.5650   -2.9649 C   0  0  0  0  0  0  0  0  0  0  0  0
   -0.0641   -5.3506   -1.9962 C   0  0  0  0  0  0  0  0  0  0  0  0
    2.0945   -6.6718   -2.3132 C   0  0  0  0  0  0  0  0  0  0  0  0
    0.5926   -6.5604   -2.2753 C   0  0  0  0  0  0  0  0  0  0  0  0
    2.7662    0.6797   -1.4735 C   0  0  0  0  0  0  0  0  0  0  0  0
   -1.4671   -5.3373   -1.9291 C   0  0  0  0  0  0  0  0  0  0  0  0
   -0.1661   -7.7235   -2.4835 C   0  0  0  0  0  0  0  0  0  0  0  0
   -2.2105   -6.4985   -2.1664 C   0  0  0  0  0  0  0  0  0  0  0  0
   -1.5607   -7.6894   -2.4738 C   0  0  0  0  0  0  0  0  0  0  0  0
    3.0072    1.7902   -1.8564 C   0  0  0  0  0  0  0  0  0  0  0  0
   -3.4398   -8.8167   -3.4116 C   0  0  0  0  0  0  0  0  0  0  0  0
   -3.9420  -10.2467   -3.6492 C   0  0  0  0  0  0  0  0  0  0  0  0
   -3.3679   -8.2373   -4.8242 C   0  0  0  0  0  0  0  0  0  0  0  0
   -4.7131  -10.2235   -4.9687 C   0  0  0  0  0  0  0  0  0  0  0  0
   -4.6062   -8.7999   -5.4983 C   0  0  0  0  0  0  0  0  0  0  0  0
  2 21  1  0  0  0  0
  2 23  1  0  0  0  0
  3  4  1  0  0  0  0
  3  6  1  0  0  0  0
  3  8  1  0  0  0  0
  3 13  1  1  0  0  0
  4  5  1  0  0  0  0
  4  9  1  1  0  0  0
  5  7  1  0  0  0  0
  5 12  1  6  0  0  0
  6  1  1  1  0  0  0
  6 11  1  0  0  0  0
  6 17  1  0  0  0  0
  7 10  1  1  0  0  0
  7 14  1  0  0  0  0
  8 10  1  0  0  0  0
  9 11  1  0  0  0  0
 12 15  1  0  0  0  0
 14 16  2  0  0  0  0
 14 18  1  0  0  0  0
 15 16  1  0  0  0  0
 16 19  1  0  0  0  0
 17 22  3  0  0  0  0
 18 20  2  0  0  0  0
 19 21  2  0  0  0  0
 20 21  1  0  0  0  0
 23 24  1  0  0  0  0
 23 25  1  0  0  0  0
 24 26  1  0  0  0  0
 25 27  1  0  0  0  0
 26 27  1  0  0  0  0
M  END
