908
 OpenBabel10141417513D

 24 27  0  0  1  0  0  0  0  0999 V2000
   -3.6251    0.8939   -0.9137 O   0  0  0  0  0  0  0  0  0  0  0  0
    1.7289   -2.0759    1.3530 O   0  0  0  0  0  0  0  0  0  0  0  0
   -4.4902   -0.0848    1.8206 N   0  0  3  0  0  0  0  0  0  0  0  0
    0.8491    2.9630   -0.7157 N   0  0  0  0  0  0  0  0  0  0  0  0
   -4.7448    2.3356    2.7637 C   0  0  1  0  0  0  0  0  0  0  0  0
   -3.2362    0.7071    1.5410 C   0  0  2  0  0  0  0  0  0  0  0  0
   -3.4071    2.1692    2.0233 C   0  0  0  0  0  0  0  0  0  0  0  0
   -5.8979    2.0291    1.7829 C   0  0  2  0  0  0  0  0  0  0  0  0
   -4.7996    1.2904    3.8915 C   0  0  0  0  0  0  0  0  0  0  0  0
   -5.7050    0.5795    1.2661 C   0  0  0  0  0  0  0  0  0  0  0  0
   -4.6700   -0.1227    3.2975 C   0  0  0  0  0  0  0  0  0  0  0  0
   -2.6602    0.5431    0.0860 C   0  0  2  0  0  0  0  0  0  0  0  0
   -5.9835    3.0343    0.6551 C   0  0  0  0  0  0  0  0  0  0  0  0
   -1.3905    1.3462   -0.1859 C   0  0  0  0  0  0  0  0  0  0  0  0
   -6.7335    4.1433    0.6893 C   0  0  0  0  0  0  0  0  0  0  0  0
   -0.0802    0.8605    0.0918 C   0  0  0  0  0  0  0  0  0  0  0  0
   -1.5209    2.6293   -0.7433 C   0  0  0  0  0  0  0  0  0  0  0  0
    0.9961    1.7374   -0.2024 C   0  0  0  0  0  0  0  0  0  0  0  0
    0.2375   -0.4202    0.6265 C   0  0  0  0  0  0  0  0  0  0  0  0
   -0.3948    3.3869   -0.9834 C   0  0  0  0  0  0  0  0  0  0  0  0
    2.2949    1.3271    0.0377 C   0  0  0  0  0  0  0  0  0  0  0  0
    1.5616   -0.8141    0.8506 C   0  0  0  0  0  0  0  0  0  0  0  0
    2.5931    0.0712    0.5575 C   0  0  0  0  0  0  0  0  0  0  0  0
    3.0747   -2.4794    1.6024 C   0  0  0  0  0  0  0  0  0  0  0  0
  2 22  1  0  0  0  0
  2 24  1  0  0  0  0
  3  6  1  0  0  0  0
  3 10  1  0  0  0  0
  3 11  1  0  0  0  0
  4 18  2  0  0  0  0
  4 20  1  0  0  0  0
  5  7  1  6  0  0  0
  5  8  1  0  0  0  0
  5  9  1  0  0  0  0
  6  7  1  6  0  0  0
  6 12  1  0  0  0  0
  8 10  1  0  0  0  0
  8 13  1  6  0  0  0
  9 11  1  0  0  0  0
 12 14  1  1  0  0  0
 12  1  1  0  0  0  0
 13 15  2  0  0  0  0
 14 16  2  0  0  0  0
 14 17  1  0  0  0  0
 16 18  1  0  0  0  0
 16 19  1  0  0  0  0
 17 20  2  0  0  0  0
 18 21  1  0  0  0  0
 19 22  2  0  0  0  0
 21 23  2  0  0  0  0
 22 23  1  0  0  0  0
M  END
