1129
 OpenBabel10141417493D

 25 27  0  0  1  0  0  0  0  0999 V2000
    1.2064   -0.9303   -2.4162 S   0  0  3  0  0  0  0  0  0  0  0  0
   -4.0687   -0.2520   -0.0633 O   0  0  0  0  0  0  0  0  0  0  0  0
   -7.7306   -0.7269   -2.2592 O   0  0  0  0  0  0  0  0  0  0  0  0
    1.0813   -2.3226   -2.9734 O   0  0  0  0  0  0  0  0  0  0  0  0
    3.8471   -1.6131   -2.5813 N   0  0  0  0  0  0  0  0  0  0  0  0
    3.4638    0.3866   -1.6956 N   0  0  0  0  0  0  0  0  0  0  0  0
   -0.7236   -2.7179   -0.2218 N   0  0  0  0  0  0  0  0  0  0  0  0
    0.7980   -0.9095   -0.6393 C   0  0  0  0  0  0  0  0  0  0  0  0
   -0.6131   -1.3755   -0.3942 C   0  0  0  0  0  0  0  0  0  0  0  0
   -1.7326   -0.5249   -0.3877 C   0  0  0  0  0  0  0  0  0  0  0  0
   -3.0028   -1.1113   -0.2099 C   0  0  0  0  0  0  0  0  0  0  0  0
    2.9098   -0.6952   -2.2172 C   0  0  0  0  0  0  0  0  0  0  0  0
    5.0857   -1.0931   -2.3360 C   0  0  0  0  0  0  0  0  0  0  0  0
   -5.3703   -0.7574   -0.3993 C   0  0  0  0  0  0  0  0  0  0  0  0
   -6.3090    0.4361   -0.6137 C   0  0  0  0  0  0  0  0  0  0  0  0
    4.8157    0.1625   -1.7876 C   0  0  0  0  0  0  0  0  0  0  0  0
   -1.6132    0.9663   -0.5393 C   0  0  0  0  0  0  0  0  0  0  0  0
   -3.1148   -2.4967   -0.1493 C   0  0  0  0  0  0  0  0  0  0  0  0
   -7.7187    0.0337   -1.0508 C   0  0  0  0  0  0  0  0  0  0  0  0
    6.3780   -1.5754   -2.5410 C   0  0  0  0  0  0  0  0  0  0  0  0
   -1.9551   -3.2464   -0.1331 C   0  0  0  0  0  0  0  0  0  0  0  0
    5.8849    0.9948   -1.4258 C   0  0  0  0  0  0  0  0  0  0  0  0
    7.4308   -0.7262   -2.1808 C   0  0  0  0  0  0  0  0  0  0  0  0
    7.1919    0.5376   -1.6333 C   0  0  0  0  0  0  0  0  0  0  0  0
   -7.2470    0.0085   -3.3787 C   0  0  0  0  0  0  0  0  0  0  0  0
  1  4  2  0  0  0  0
  1  8  1  0  0  0  0
  1 12  1  0  0  0  0
  2 11  1  0  0  0  0
  2 14  1  0  0  0  0
  3 19  1  0  0  0  0
  3 25  1  0  0  0  0
  5 12  1  0  0  0  0
  5 13  1  0  0  0  0
  6 12  2  0  0  0  0
  6 16  1  0  0  0  0
  7  9  2  0  0  0  0
  7 21  1  0  0  0  0
  8  9  1  0  0  0  0
  9 10  1  0  0  0  0
 10 11  2  0  0  0  0
 10 17  1  0  0  0  0
 11 18  1  0  0  0  0
 13 16  1  0  0  0  0
 13 20  2  0  0  0  0
 14 15  1  0  0  0  0
 15 19  1  0  0  0  0
 16 22  2  0  0  0  0
 18 21  2  0  0  0  0
 20 23  1  0  0  0  0
 22 24  1  0  0  0  0
 23 24  2  0  0  0  0
M  END
