481
 OpenBabel10141417483D

 34 38  0  0  0  0  0  0  0  0999 V2000
    3.0248   -0.7179   -1.5481 S   0  0  0  0  0  0  0  0  0  0  0  0
   -1.8662    6.2940    0.5160 O   0  0  0  0  0  0  0  0  0  0  0  0
    3.3393    2.8796    1.4459 O   0  0  0  0  0  0  0  0  0  0  0  0
    1.7091    1.5853   -5.9806 O   0  0  0  0  0  0  0  0  0  0  0  0
    3.7929   -2.7869    4.6744 O   0  0  0  0  0  0  0  0  0  0  0  0
   -5.5194    6.4289    1.4357 N   0  0  0  0  0  0  0  0  0  0  0  0
   -6.3346    7.5034    2.0352 C   0  0  0  0  0  0  0  0  0  0  0  0
   -5.6968    5.1959    2.2183 C   0  0  0  0  0  0  0  0  0  0  0  0
   -6.0193    7.7699    3.5120 C   0  0  0  0  0  0  0  0  0  0  0  0
   -5.2989    5.3538    3.6863 C   0  0  0  0  0  0  0  0  0  0  0  0
   -6.0808    6.4887    4.3416 C   0  0  0  0  0  0  0  0  0  0  0  0
   -4.1051    6.8351    1.2780 C   0  0  0  0  0  0  0  0  0  0  0  0
   -3.1977    5.7705    0.6284 C   0  0  0  0  0  0  0  0  0  0  0  0
   -0.8709    5.3553    0.4735 C   0  0  0  0  0  0  0  0  0  0  0  0
    2.6362    1.5548   -0.4018 C   0  0  0  0  0  0  0  0  0  0  0  0
    2.4579    1.7568   -1.8544 C   0  0  0  0  0  0  0  0  0  0  0  0
    2.9457    0.2189   -0.0954 C   0  0  0  0  0  0  0  0  0  0  0  0
    2.5527    0.5604   -2.5609 C   0  0  0  0  0  0  0  0  0  0  0  0
    1.3168    3.5725    0.5148 C   0  0  0  0  0  0  0  0  0  0  0  0
    2.4947    2.6476    0.5826 C   0  0  0  0  0  0  0  0  0  0  0  0
    0.3663    5.7706    0.9707 C   0  0  0  0  0  0  0  0  0  0  0  0
   -1.0054    4.0602   -0.0294 C   0  0  0  0  0  0  0  0  0  0  0  0
    1.4526    4.8838    0.9941 C   0  0  0  0  0  0  0  0  0  0  0  0
    0.0736    3.1642    0.0081 C   0  0  0  0  0  0  0  0  0  0  0  0
    3.1867   -0.5398    1.1760 C   0  0  0  0  0  0  0  0  0  0  0  0
    2.1902    2.9247   -2.6280 C   0  0  0  0  0  0  0  0  0  0  0  0
    2.3076    0.4640   -3.9479 C   0  0  0  0  0  0  0  0  0  0  0  0
    1.9433    2.8433   -4.0056 C   0  0  0  0  0  0  0  0  0  0  0  0
    1.9840    1.6203   -4.6453 C   0  0  0  0  0  0  0  0  0  0  0  0
    3.8057    0.0223    2.2984 C   0  0  0  0  0  0  0  0  0  0  0  0
    2.8242   -1.9039    1.2853 C   0  0  0  0  0  0  0  0  0  0  0  0
    4.0047   -0.7079    3.4843 C   0  0  0  0  0  0  0  0  0  0  0  0
    3.0462   -2.6484    2.4499 C   0  0  0  0  0  0  0  0  0  0  0  0
    3.6191   -2.0388    3.5505 C   0  0  0  0  0  0  0  0  0  0  0  0
  1 17  1  0  0  0  0
  1 18  1  0  0  0  0
  2 13  1  0  0  0  0
  2 14  1  0  0  0  0
  3 20  2  0  0  0  0
  4 29  1  0  0  0  0
  5 34  1  0  0  0  0
  6  7  1  0  0  0  0
  6  8  1  0  0  0  0
  6 12  1  0  0  0  0
  7  9  1  0  0  0  0
  8 10  1  0  0  0  0
  9 11  1  0  0  0  0
 10 11  1  0  0  0  0
 12 13  1  0  0  0  0
 14 21  2  0  0  0  0
 14 22  1  0  0  0  0
 15 16  1  0  0  0  0
 15 17  2  0  0  0  0
 15 20  1  0  0  0  0
 16 18  2  0  0  0  0
 16 26  1  0  0  0  0
 17 25  1  0  0  0  0
 18 27  1  0  0  0  0
 19 20  1  0  0  0  0
 19 23  2  0  0  0  0
 19 24  1  0  0  0  0
 21 23  1  0  0  0  0
 22 24  2  0  0  0  0
 25 30  2  0  0  0  0
 25 31  1  0  0  0  0
 26 28  2  0  0  0  0
 27 29  2  0  0  0  0
 28 29  1  0  0  0  0
 30 32  1  0  0  0  0
 31 33  2  0  0  0  0
 32 34  2  0  0  0  0
 33 34  1  0  0  0  0
M  END
