178
 OpenBabel10141417483D

 30 32  0  0  1  0  0  0  0  0999 V2000
   -1.8506    1.1702    1.5960 O   0  0  0  0  0  0  0  0  0  0  0  0
   -0.3701    1.4187   -2.4444 O   0  0  0  0  0  0  0  0  0  0  0  0
    0.2092    2.8141   -0.8078 O   0  0  0  0  0  0  0  0  0  0  0  0
   -2.7627    4.6125    6.7893 O   0  0  0  0  0  0  0  0  0  0  0  0
   -1.1134    3.6703    5.5736 O   0  0  0  0  0  0  0  0  0  0  0  0
   -2.4925    2.8734    0.2195 N   0  0  0  0  0  0  0  0  0  0  0  0
   -2.9935    2.3070    3.9195 N   0  0  0  0  0  0  0  0  0  0  0  0
   -3.5302    4.0679   -1.5722 C   0  0  2  0  0  0  0  0  0  0  0  0
   -3.1058    4.1550   -0.1019 C   0  0  2  0  0  0  0  0  0  0  0  0
   -3.0122    2.7269   -2.1005 C   0  0  0  0  0  0  0  0  0  0  0  0
   -2.9575    5.3051   -2.2697 C   0  0  0  0  0  0  0  0  0  0  0  0
   -2.1718    5.3676   -0.0395 C   0  0  0  0  0  0  0  0  0  0  0  0
   -2.1584    2.1108   -0.9880 C   0  0  1  0  0  0  0  0  0  0  0  0
   -2.6619    6.2767   -1.1435 C   0  0  0  0  0  0  0  0  0  0  0  0
   -2.3213    2.3057    1.4825 C   0  0  0  0  0  0  0  0  0  0  0  0
   -0.6651    2.1846   -1.3512 C   0  0  0  0  0  0  0  0  0  0  0  0
   -2.7400    3.1629    2.7224 C   0  0  2  0  0  0  0  0  0  0  0  0
   -1.6392    4.2000    2.9194 C   0  0  0  0  0  0  0  0  0  0  0  0
   -3.4641    3.0125    5.1503 C   0  0  1  0  0  0  0  0  0  0  0  0
   -3.8935    1.9511    6.2161 C   0  0  0  0  0  0  0  0  0  0  0  0
   -2.3138    3.8094    5.8041 C   0  0  0  0  0  0  0  0  0  0  0  0
   -4.3924    2.4824    7.5759 C   0  0  0  0  0  0  0  0  0  0  0  0
   -5.6574    3.3167    7.6167 C   0  0  0  0  0  0  0  0  0  0  0  0
   -6.8798    2.6869    7.8680 C   0  0  0  0  0  0  0  0  0  0  0  0
   -5.6416    4.7212    7.5655 C   0  0  0  0  0  0  0  0  0  0  0  0
   -1.7583    4.9394    7.7546 C   0  0  0  0  0  0  0  0  0  0  0  0
   -8.0208    3.4399    8.1582 C   0  0  0  0  0  0  0  0  0  0  0  0
   -6.7812    5.4749    7.8465 C   0  0  0  0  0  0  0  0  0  0  0  0
   -1.1003    6.2263    7.3254 C   0  0  0  0  0  0  0  0  0  0  0  0
   -7.9646    4.8326    8.1753 C   0  0  0  0  0  0  0  0  0  0  0  0
  1 15  2  0  0  0  0
  2 16  1  0  0  0  0
  3 16  2  0  0  0  0
  4 21  1  0  0  0  0
  4 26  1  0  0  0  0
  5 21  2  0  0  0  0
  6 13  1  0  0  0  0
  6 15  1  0  0  0  0
  8  9  1  0  0  0  0
  8 10  1  6  0  0  0
  8 11  1  0  0  0  0
  9  6  1  6  0  0  0
  9 12  1  0  0  0  0
 10 13  1  0  0  0  0
 11 14  1  0  0  0  0
 12 14  1  0  0  0  0
 13 16  1  6  0  0  0
 15 17  1  0  0  0  0
 17  7  1  1  0  0  0
 17 18  1  0  0  0  0
 19  7  1  6  0  0  0
 19 20  1  0  0  0  0
 19 21  1  0  0  0  0
 20 22  1  0  0  0  0
 22 23  1  0  0  0  0
 23 24  2  0  0  0  0
 23 25  1  0  0  0  0
 24 27  1  0  0  0  0
 25 28  2  0  0  0  0
 26 29  1  0  0  0  0
 27 30  2  0  0  0  0
 28 30  1  0  0  0  0
M  END
