234
 OpenBabel10141417493D

 23 25  0  0  1  0  0  0  0  0999 V2000
    0.9610   -0.0586   -0.6556 O   0  0  0  0  0  0  0  0  0  0  0  0
   -0.8732   -0.2824   -3.8834 O   0  0  0  0  0  0  0  0  0  0  0  0
   -1.8069   -2.4896   -2.3074 O   0  0  0  0  0  0  0  0  0  0  0  0
    0.0527    2.7085   -0.7627 N   0  0  0  0  0  0  0  0  0  0  0  0
   -0.0596    0.2854   -1.6201 C   0  0  2  0  0  0  0  0  0  0  0  0
    0.1568   -0.5951   -2.9170 C   0  0  2  0  0  0  0  0  0  0  0  0
   -0.1650    1.8146   -1.9235 C   0  0  0  0  0  0  0  0  0  0  0  0
    1.2671    2.2826   -0.0597 C   0  0  0  0  0  0  0  0  0  0  0  0
    1.0812    0.8503    0.4318 C   0  0  0  0  0  0  0  0  0  0  0  0
    1.5645   -0.4058   -3.5205 C   0  0  0  0  0  0  0  0  0  0  0  0
    2.7100   -0.6872   -2.7510 C   0  0  0  0  0  0  0  0  0  0  0  0
    1.7655    0.0680   -4.8244 C   0  0  0  0  0  0  0  0  0  0  0  0
   -1.6930   -1.2703   -4.3510 C   0  0  0  0  0  0  0  0  0  0  0  0
    3.9885   -0.3449   -3.1782 C   0  0  0  0  0  0  0  0  0  0  0  0
    3.0493    0.4205   -5.2546 C   0  0  0  0  0  0  0  0  0  0  0  0
   -2.1678   -2.3878   -3.6241 C   0  0  0  0  0  0  0  0  0  0  0  0
    4.1514    0.2559   -4.4236 C   0  0  0  0  0  0  0  0  0  0  0  0
   -2.1561   -1.0891   -5.6628 C   0  0  0  0  0  0  0  0  0  0  0  0
   -3.0115   -3.3158   -4.2599 C   0  0  0  0  0  0  0  0  0  0  0  0
   -3.0240   -2.0076   -6.2690 C   0  0  0  0  0  0  0  0  0  0  0  0
   -3.4340   -3.1386   -5.5658 C   0  0  0  0  0  0  0  0  0  0  0  0
   -2.2701   -3.5837   -1.5341 C   0  0  0  0  0  0  0  0  0  0  0  0
   -1.2739   -3.8254   -0.4169 C   0  0  0  0  0  0  0  0  0  0  0  0
  1  9  1  0  0  0  0
  2 13  1  0  0  0  0
  3 16  1  0  0  0  0
  3 22  1  0  0  0  0
  4  7  1  0  0  0  0
  4  8  1  0  0  0  0
  5  1  1  1  0  0  0
  5  6  1  0  0  0  0
  5  7  1  0  0  0  0
  6  2  1  6  0  0  0
  6 10  1  0  0  0  0
  8  9  1  0  0  0  0
 10 11  2  0  0  0  0
 10 12  1  0  0  0  0
 11 14  1  0  0  0  0
 12 15  2  0  0  0  0
 13 16  1  0  0  0  0
 13 18  2  0  0  0  0
 14 17  2  0  0  0  0
 15 17  1  0  0  0  0
 16 19  2  0  0  0  0
 18 20  1  0  0  0  0
 19 21  1  0  0  0  0
 20 21  2  0  0  0  0
 22 23  1  0  0  0  0
M  END
