1180
 OpenBabel10141417493D

 46 51  0  0  1  0  0  0  0  0999 V2000
   -1.1106   -2.8177   -0.4573 O   0  0  0  0  0  0  0  0  0  0  0  0
    2.4458   -2.0522   -0.1989 O   0  0  0  0  0  0  0  0  0  0  0  0
   -1.3951   -0.3328   -3.2942 O   0  0  0  0  0  0  0  0  0  0  0  0
    0.3855    0.6210   -2.1937 O   0  0  0  0  0  0  0  0  0  0  0  0
    3.6893   -3.5611    0.9669 O   0  0  0  0  0  0  0  0  0  0  0  0
    3.9834    0.1691  -11.6539 O   0  0  0  0  0  0  0  0  0  0  0  0
    8.9312    1.0749   -0.2942 O   0  0  0  0  0  0  0  0  0  0  0  0
    6.5188    1.9985   -4.5013 O   0  0  0  0  0  0  0  0  0  0  0  0
    8.8517    2.4404   -2.7914 O   0  0  0  0  0  0  0  0  0  0  0  0
    1.9170   -4.2029   -5.0448 N   0  0  3  0  0  0  0  0  0  0  0  0
    2.9586   -1.2873   -7.1281 N   0  0  0  0  0  0  0  0  0  0  0  0
    1.4728   -2.1272   -2.9755 C   0  0  2  0  0  0  0  0  0  0  0  0
    2.0061   -3.5399   -2.6138 C   0  0  1  0  0  0  0  0  0  0  0  0
    1.4311   -1.9128   -4.5031 C   0  0  0  0  0  0  0  0  0  0  0  0
    0.1353   -1.8076   -2.2955 C   0  0  1  0  0  0  0  0  0  0  0  0
    2.4481   -2.8344   -5.1772 C   0  0  2  0  0  0  0  0  0  0  0  0
    1.6884   -4.6181   -3.6657 C   0  0  0  0  0  0  0  0  0  0  0  0
    1.5755   -4.0470   -1.2272 C   0  0  0  0  0  0  0  0  0  0  0  0
    0.0869   -2.0705   -0.7706 C   0  0  2  0  0  0  0  0  0  0  0  0
    1.2978   -2.8994   -0.2564 C   0  0  2  0  0  0  0  0  0  0  0  0
    2.6740   -2.5195   -6.6107 C   0  0  0  0  0  0  0  0  0  0  0  0
    2.6466   -5.1991   -5.8501 C   0  0  0  0  0  0  0  0  0  0  0  0
    2.7628   -3.4469   -7.6247 C   0  0  0  0  0  0  0  0  0  0  0  0
    2.5519   -4.8995   -7.3674 C   0  0  0  0  0  0  0  0  0  0  0  0
   -0.2552   -0.3584   -2.5527 C   0  0  0  0  0  0  0  0  0  0  0  0
    3.0719   -2.7474   -8.8129 C   0  0  0  0  0  0  0  0  0  0  0  0
    3.2025   -1.3964   -8.4790 C   0  0  0  0  0  0  0  0  0  0  0  0
   -2.3260   -2.1291   -0.7379 C   0  0  0  0  0  0  0  0  0  0  0  0
    3.2713   -3.1409  -10.1417 C   0  0  0  0  0  0  0  0  0  0  0  0
    3.5831   -2.5857    0.2849 C   0  0  0  0  0  0  0  0  0  0  0  0
    3.5288   -0.4136   -9.4233 C   0  0  0  0  0  0  0  0  0  0  0  0
    3.5777   -2.1716  -11.0970 C   0  0  0  0  0  0  0  0  0  0  0  0
    3.6876   -0.8235  -10.7526 C   0  0  0  0  0  0  0  0  0  0  0  0
   -1.7550    0.8939   -3.9301 C   0  0  0  0  0  0  0  0  0  0  0  0
    4.7590   -1.8698   -0.2722 C   0  0  0  0  0  0  0  0  0  0  0  0
    4.6176   -0.8078   -1.0543 C   0  0  0  0  0  0  0  0  0  0  0  0
    3.5302   -0.0915  -12.9813 C   0  0  0  0  0  0  0  0  0  0  0  0
    5.7452   -0.0290   -1.5347 C   0  0  0  0  0  0  0  0  0  0  0  0
    5.6325    0.5921   -2.7706 C   0  0  0  0  0  0  0  0  0  0  0  0
    6.8735    0.1779   -0.7530 C   0  0  0  0  0  0  0  0  0  0  0  0
    7.9165    0.9755   -1.2154 C   0  0  0  0  0  0  0  0  0  0  0  0
    6.6405    1.4291   -3.2521 C   0  0  0  0  0  0  0  0  0  0  0  0
    7.7968    1.6400   -2.4582 C   0  0  0  0  0  0  0  0  0  0  0  0
   10.2553    1.1829   -0.7964 C   0  0  0  0  0  0  0  0  0  0  0  0
    5.1829    2.1130   -5.0128 C   0  0  0  0  0  0  0  0  0  0  0  0
    8.6231    3.6212   -3.5384 C   0  0  0  0  0  0  0  0  0  0  0  0
  1 28  1  0  0  0  0
  2 30  1  0  0  0  0
  3 25  1  0  0  0  0
  3 34  1  0  0  0  0
  4 25  2  0  0  0  0
  5 30  2  0  0  0  0
  6 33  1  0  0  0  0
  6 37  1  0  0  0  0
  7 41  1  0  0  0  0
  7 44  1  0  0  0  0
  8 42  1  0  0  0  0
  8 45  1  0  0  0  0
  9 43  1  0  0  0  0
  9 46  1  0  0  0  0
 10 16  1  0  0  0  0
 10 17  1  0  0  0  0
 10 22  1  0  0  0  0
 11 21  1  0  0  0  0
 11 27  1  0  0  0  0
 12 13  1  0  0  0  0
 12 14  1  1  0  0  0
 12 15  1  0  0  0  0
 13 17  1  1  0  0  0
 13 18  1  0  0  0  0
 15 19  1  0  0  0  0
 15 25  1  1  0  0  0
 16 14  1  6  0  0  0
 16 21  1  0  0  0  0
 18 20  1  0  0  0  0
 19 20  1  0  0  0  0
 19  1  1  6  0  0  0
 20  2  1  6  0  0  0
 21 23  2  0  0  0  0
 22 24  1  0  0  0  0
 23 24  1  0  0  0  0
 23 26  1  0  0  0  0
 26 27  2  0  0  0  0
 26 29  1  0  0  0  0
 27 31  1  0  0  0  0
 29 32  2  0  0  0  0
 30 35  1  0  0  0  0
 31 33  2  0  0  0  0
 32 33  1  0  0  0  0
 35 36  2  3  0  0  0
 36 38  1  0  0  0  0
 38 39  2  0  0  0  0
 38 40  1  0  0  0  0
 39 42  1  0  0  0  0
 40 41  2  0  0  0  0
 41 43  1  0  0  0  0
 42 43  2  0  0  0  0
M  END
