811
 OpenBabel10141417483D

 17 18  0  0  1  0  0  0  0  0999 V2000
   -0.5767   -0.9148    0.6613 O   0  0  0  0  0  0  0  0  0  0  0  0
   -0.3169    1.2206   -1.6197 O   0  0  0  0  0  0  0  0  0  0  0  0
    2.2140    0.7752   -0.9164 O   0  0  0  0  0  0  0  0  0  0  0  0
    2.9978   -1.7852    0.4170 O   0  0  0  0  0  0  0  0  0  0  0  0
    0.8781    1.6164    5.4310 O   0  0  0  0  0  0  0  0  0  0  0  0
   -1.3248    0.9325    1.9117 N   0  0  0  0  0  0  0  0  0  0  0  0
   -0.3258    1.0466    2.8104 N   0  0  0  0  0  0  0  0  0  0  0  0
   -2.3338    1.6918    3.6941 N   0  0  0  0  0  0  0  0  0  0  0  0
   -1.1671    2.2449    6.1609 N   0  0  0  0  0  0  0  0  0  0  0  0
    1.2380    0.5351    0.0954 C   0  0  1  0  0  0  0  0  0  0  0  0
   -0.0540    1.2720   -0.2042 C   0  0  2  0  0  0  0  0  0  0  0  0
    0.7596   -0.9152    0.1301 C   0  0  1  0  0  0  0  0  0  0  0  0
   -1.0837    0.4415    0.5638 C   0  0  1  0  0  0  0  0  0  0  0  0
    1.6794   -1.8048    0.9598 C   0  0  0  0  0  0  0  0  0  0  0  0
   -2.5125    1.3200    2.4477 C   0  0  0  0  0  0  0  0  0  0  0  0
   -0.9736    1.4986    3.8998 C   0  0  0  0  0  0  0  0  0  0  0  0
   -0.3187    1.7762    5.1930 C   0  0  0  0  0  0  0  0  0  0  0  0
  1 12  1  0  0  0  0
  1 13  1  0  0  0  0
  4 14  1  0  0  0  0
  5 17  2  0  0  0  0
  6  7  1  0  0  0  0
  6 15  1  0  0  0  0
  7 16  2  0  0  0  0
  8 15  2  0  0  0  0
  8 16  1  0  0  0  0
  9 17  1  0  0  0  0
 10  3  1  6  0  0  0
 10 11  1  0  0  0  0
 10 12  1  0  0  0  0
 11  2  1  6  0  0  0
 11 13  1  0  0  0  0
 12 14  1  1  0  0  0
 13  6  1  1  0  0  0
 16 17  1  0  0  0  0
M  END
