
 OpenBabel10141417503D

 27 29  0  0  0  0  0  0  0  0999 V2000
    0.7108   -1.2676    1.1630 C   0  0  0  0  0  0  0  0  0  0  0  0
    0.6654   -2.7720    1.3432 C   0  0  0  0  0  0  0  0  0  0  0  0
   -1.6494   -1.3901    0.6440 C   0  0  0  0  0  0  0  0  0  0  0  0
   -1.5959   -2.7896    0.8389 C   0  0  0  0  0  0  0  0  0  0  0  0
   -2.9086   -0.8319    0.3795 C   0  0  0  0  0  0  0  0  0  0  0  0
   -2.7462   -3.5772    0.6976 C   0  0  0  0  0  0  0  0  0  0  0  0
   -3.9834   -3.0149    0.3665 C   0  0  0  0  0  0  0  0  0  0  0  0
   -4.0592   -1.6251    0.1870 C   0  0  0  0  0  0  0  0  0  0  0  0
    2.9421   -1.3060    1.8662 C   0  0  0  0  0  0  0  0  0  0  0  0
   -0.4174   -3.4659    1.1914 N   0  0  0  0  0  0  0  0  0  0  0  0
    1.8258   -0.6454    1.4240 N   0  0  0  0  0  0  0  0  0  0  0  0
    1.9328   -3.4619    1.7532 C   0  0  0  0  0  0  0  0  0  0  0  0
    2.1237   -4.6629    1.5850 O   0  0  0  0  0  0  0  0  0  0  0  0
    4.0353   -0.7683    1.8976 O   0  0  0  0  0  0  0  0  0  0  0  0
    2.8521   -2.6167    2.2686 N   0  0  0  0  0  0  0  0  0  0  0  0
   -0.4616   -0.6292    0.7417 N   0  0  0  0  0  0  0  0  0  0  0  0
   -0.4171    0.7669    0.2466 C   0  0  0  0  0  0  0  0  0  0  0  0
   -0.6121    0.8883   -1.2846 C   0  0  1  0  0  0  0  0  0  0  0  0
   -0.5070    2.3487   -1.7925 C   0  0  1  0  0  0  0  0  0  0  0  0
    0.3063    0.0453   -1.9925 O   0  0  0  0  0  0  0  0  0  0  0  0
    0.8807    3.0208   -1.6194 C   0  0  1  0  0  0  0  0  0  0  0  0
   -0.9192    2.3451   -3.1747 O   0  0  0  0  0  0  0  0  0  0  0  0
    2.0498    2.3481   -2.3510 C   0  0  0  0  0  0  0  0  0  0  0  0
    0.7745    4.3713   -2.1187 O   0  0  0  0  0  0  0  0  0  0  0  0
    1.8157    2.4082   -3.7588 O   0  0  0  0  0  0  0  0  0  0  0  0
   -5.3551   -0.9430   -0.1559 C   0  0  0  0  0  0  0  0  0  0  0  0
   -5.1806   -3.9107    0.2001 C   0  0  0  0  0  0  0  0  0  0  0  0
  2  1  1  0  0  0  0
  2 12  1  0  0  0  0
  3  4  1  0  0  0  0
  4 10  1  0  0  0  0
  5  3  2  0  0  0  0
  5  8  1  0  0  0  0
  6  4  2  0  0  0  0
  7  6  1  0  0  0  0
  7 27  1  0  0  0  0
  8  7  2  0  0  0  0
  8 26  1  0  0  0  0
  9 14  2  0  0  0  0
 10  2  2  0  0  0  0
 11  1  2  0  0  0  0
 11  9  1  0  0  0  0
 12 15  1  0  0  0  0
 12 13  2  0  0  0  0
 15  9  1  0  0  0  0
 16  3  1  0  0  0  0
 16  1  1  0  0  0  0
 16 17  1  0  0  0  0
 18 17  1  1  0  0  0
 18 19  1  0  0  0  0
 18 20  1  0  0  0  0
 19 21  1  0  0  0  0
 19 22  1  6  0  0  0
 21 23  1  6  0  0  0
 21 24  1  0  0  0  0
 23 25  1  0  0  0  0
M  END
