1207
 OpenBabel10141417523D

 26 27  0  0  0  0  0  0  0  0999 V2000
   -0.9715    4.0021    7.4257 F   0  0  0  0  0  0  0  0  0  0  0  0
    1.1015    4.5532    7.7957 F   0  0  0  0  0  0  0  0  0  0  0  0
   -0.0154    3.4374    9.2938 F   0  0  0  0  0  0  0  0  0  0  0  0
    1.0270   -1.0440    3.2327 O   0  0  0  0  0  0  0  0  0  0  0  0
    5.4975   -1.1011    6.0845 O   0  0  0  0  0  0  0  0  0  0  0  0
    6.1103   -1.5701    4.0400 O   0  0  0  0  0  0  0  0  0  0  0  0
   -0.3012   -1.1155    3.6897 N   0  0  0  0  0  0  0  0  0  0  0  0
   -4.3990   -1.2291    4.6939 N   0  0  0  0  0  0  0  0  0  0  0  0
    2.2370   -3.1728    2.9752 C   0  0  0  0  0  0  0  0  0  0  0  0
    3.6457   -2.7406    3.4031 C   0  0  0  0  0  0  0  0  0  0  0  0
    1.2981   -2.1413    2.3317 C   0  0  0  0  0  0  0  0  0  0  0  0
    3.7798   -1.7575    4.5466 C   0  0  0  0  0  0  0  0  0  0  0  0
    0.3263    0.4808    5.6311 C   0  0  0  0  0  0  0  0  0  0  0  0
   -0.6231   -0.3732    4.7259 C   0  0  0  0  0  0  0  0  0  0  0  0
   -0.0491    1.6851    6.2367 C   0  0  0  0  0  0  0  0  0  0  0  0
    0.6710    2.2690    7.3193 C   0  0  0  0  0  0  0  0  0  0  0  0
   -2.1151   -0.4392    5.1121 C   0  0  0  0  0  0  0  0  0  0  0  0
    1.5607    0.0036    6.0555 C   0  0  0  0  0  0  0  0  0  0  0  0
    5.2294   -1.4940    4.8229 C   0  0  0  0  0  0  0  0  0  0  0  0
    1.8508    1.6815    7.7764 C   0  0  0  0  0  0  0  0  0  0  0  0
    2.3259    0.5729    7.1016 C   0  0  0  0  0  0  0  0  0  0  0  0
    0.1978    3.5499    7.9541 C   0  0  0  0  0  0  0  0  0  0  0  0
   -2.6199    0.1952    6.2480 C   0  0  0  0  0  0  0  0  0  0  0  0
   -3.0664   -1.1512    4.3746 C   0  0  0  0  0  0  0  0  0  0  0  0
   -3.9703    0.1852    6.5734 C   0  0  0  0  0  0  0  0  0  0  0  0
   -4.8185   -0.5515    5.7834 C   0  0  0  0  0  0  0  0  0  0  0  0
  1 22  1  0  0  0  0
  2 22  1  0  0  0  0
  3 22  1  0  0  0  0
  4  7  1  0  0  0  0
  4 11  1  0  0  0  0
  5 19  1  0  0  0  0
  6 19  2  0  0  0  0
  7 14  2  0  0  0  0
  8 24  1  0  0  0  0
  8 26  2  0  0  0  0
  9 10  1  0  0  0  0
  9 11  1  0  0  0  0
 10 12  1  0  0  0  0
 12 19  1  0  0  0  0
 13 14  1  0  0  0  0
 13 15  2  0  0  0  0
 13 18  1  0  0  0  0
 14 17  1  0  0  0  0
 15 16  1  0  0  0  0
 16 20  2  0  0  0  0
 16 22  1  0  0  0  0
 17 23  1  0  0  0  0
 17 24  2  0  0  0  0
 18 21  2  0  0  0  0
 20 21  1  0  0  0  0
 23 25  2  0  0  0  0
 25 26  1  0  0  0  0
M  END
