
 OpenBabel10141417543D

 61 66  0  0  1  0  0  0  0  0999 V2000
  -18.5131   14.9675   -1.1195 C   0  0  0  0  0  0  0  0  0  0  0  0
  -19.3949   13.8107   -1.5462 C   0  0  0  0  0  0  0  0  0  0  0  0
  -19.5376   12.7438   -0.4634 C   0  0  0  0  0  0  0  0  0  0  0  0
  -19.9213   13.2865    0.8522 N   0  0  0  0  0  0  0  0  0  0  0  0
  -18.8933   14.2390    1.2824 C   0  0  0  0  0  0  0  0  0  0  0  0
  -18.7726   15.4215    0.3384 C   0  0  0  0  0  0  0  0  0  0  0  0
  -16.5161   18.6702   -1.5329 C   0  0  0  0  0  0  0  0  0  0  0  0
  -17.3833   18.0991   -2.4643 C   0  0  0  0  0  0  0  0  0  0  0  0
  -18.5220   18.7791   -2.8342 C   0  0  0  0  0  0  0  0  0  0  0  0
  -19.5328   18.4150   -3.7953 C   0  0  0  0  0  0  0  0  0  0  0  0
  -19.0794   19.7031   -1.9889 C   0  0  0  0  0  0  0  0  0  0  0  0
  -23.4945   13.9736   -5.0581 C   0  0  1  0  0  0  0  0  0  0  0  0
  -18.3576   20.1879   -0.8936 C   0  0  0  0  0  0  0  0  0  0  0  0
  -17.0327   19.6963   -0.7107 C   0  0  0  0  0  0  0  0  0  0  0  0
  -22.6342   12.7225   -4.6179 C   0  0  2  0  0  0  0  0  0  0  0  0
  -21.3760   12.3088   -5.4651 C   0  0  1  0  0  0  0  0  0  0  0  0
  -19.6013   10.4116   -4.5112 C   0  0  1  0  0  0  0  0  0  0  0  0
  -20.2014   11.8540   -4.5310 C   0  0  1  0  0  0  0  0  0  0  0  0
  -18.3585   10.3994   -3.5270 C   0  0  1  0  0  0  0  0  0  0  0  0
  -18.3962    9.2408   -2.6685 O   0  0  0  0  0  0  0  0  0  0  0  0
  -16.8839   10.5067   -4.0775 C   0  0  2  0  0  0  0  0  0  0  0  0
  -16.0320   11.2970   -3.0640 C   0  0  0  0  0  0  0  0  0  0  0  0
  -13.5946   14.0658   -2.5881 C   0  0  0  0  0  0  0  0  0  0  0  0
  -14.4831   13.0793   -2.3335 C   0  0  0  0  0  0  0  0  0  0  0  0
  -15.0751   12.2038   -3.3368 C   0  0  0  0  0  0  0  0  0  0  0  0
  -13.3148   15.2216   -1.6276 C   0  0  0  0  0  0  0  0  0  0  0  0
  -15.2329   17.9275   -1.2560 C   0  0  0  0  0  0  0  0  0  0  0  0
  -15.3293   16.4188   -1.2805 C   0  0  0  0  0  0  0  0  0  0  0  0
  -14.3498   15.5640   -0.7666 N   0  0  0  0  0  0  0  0  0  0  0  0
  -19.3012   17.8111   -4.8185 O   0  0  0  0  0  0  0  0  0  0  0  0
  -23.6805   15.0472   -3.9205 C   0  0  2  0  0  0  0  0  0  0  0  0
  -22.4727   15.8825   -3.5314 C   0  0  0  0  0  0  0  0  0  0  0  0
  -22.4936   17.2212   -3.4122 C   0  0  0  0  0  0  0  0  0  0  0  0
  -21.5624   17.9112   -2.6812 O   0  0  0  0  0  0  0  0  0  0  0  0
  -20.8408   18.9943   -3.2862 C   0  0  1  0  0  0  0  0  0  0  0  0
  -20.4067   19.9596   -2.2503 O   0  0  0  0  0  0  0  0  0  0  0  0
  -21.5811   19.7956   -4.3494 C   0  0  0  0  0  0  0  0  0  0  0  0
  -12.8233   14.2084   -3.8759 C   0  0  0  0  0  0  0  0  0  0  0  0
  -24.1491   14.3470   -2.7499 O   0  0  0  0  0  0  0  0  0  0  0  0
  -24.5594   15.2022   -1.6885 C   0  0  0  0  0  0  0  0  0  0  0  0
  -23.0508   14.6671   -6.3475 C   0  0  0  0  0  0  0  0  0  0  0  0
  -20.6530    9.3750   -4.0836 C   0  0  0  0  0  0  0  0  0  0  0  0
  -16.7291   11.0153   -5.5132 C   0  0  0  0  0  0  0  0  0  0  0  0
  -23.4302   11.5521   -4.2641 O   0  0  0  0  0  0  0  0  0  0  0  0
  -19.1208   12.7632   -4.8034 O   0  0  0  0  0  0  0  0  0  0  0  0
  -24.3212   11.0154   -5.1384 C   0  0  0  0  0  0  0  0  0  0  0  0
  -24.9318    9.7692   -4.5679 C   0  0  0  0  0  0  0  0  0  0  0  0
  -24.5555   11.4233   -6.2674 O   0  0  0  0  0  0  0  0  0  0  0  0
  -14.2053   18.5307   -0.9864 O   0  0  0  0  0  0  0  0  0  0  0  0
  -16.2915   20.0715    0.3760 O   0  0  0  0  0  0  0  0  0  0  0  0
  -21.6114   11.3803   -6.6556 C   0  0  0  0  0  0  0  0  0  0  0  0
  -12.2927   15.8892   -1.7436 O   0  0  0  0  0  0  0  0  0  0  0  0
  -16.5196   15.8998   -1.5841 C   0  0  0  0  0  0  0  0  0  0  0  0
  -17.6252   16.7085   -2.0966 C   0  0  0  0  0  0  0  0  0  0  0  0
  -18.8043   16.1567   -1.9806 N   0  0  0  0  0  0  0  0  0  0  0  0
  -17.0666   14.6647   -1.2806 N   0  0  0  0  0  0  0  0  0  0  0  0
  -21.2883   13.8469    0.8279 C   0  0  0  0  0  0  0  0  0  0  0  0
  -21.7941   14.4426    2.1613 C   0  0  0  0  0  0  0  0  0  0  0  0
  -23.2063   15.0018    1.9651 C   0  0  0  0  0  0  0  0  0  0  0  0
  -21.7784   13.4165    3.2924 C   0  0  0  0  0  0  0  0  0  0  0  0
  -19.0353   21.0648    0.1217 C   0  0  0  0  0  0  0  0  0  0  0  0
  1  2  1  0  0  0  0
  1 56  1  0  0  0  0
  2  3  1  0  0  0  0
  3  4  1  0  0  0  0
  4  5  1  0  0  0  0
  4 57  1  0  0  0  0
  5  6  1  0  0  0  0
  6  1  1  0  0  0  0
  7 14  1  0  0  0  0
  7  8  2  0  0  0  0
  8 54  1  0  0  0  0
  9  8  1  0  0  0  0
  9 11  2  0  0  0  0
 10 30  2  0  0  0  0
 10  9  1  0  0  0  0
 11 13  1  0  0  0  0
 12 31  1  0  0  0  0
 12 41  1  6  0  0  0
 13 14  2  0  0  0  0
 13 61  1  0  0  0  0
 14 50  1  0  0  0  0
 15 12  1  0  0  0  0
 15 44  1  6  0  0  0
 16 15  1  0  0  0  0
 16 51  1  6  0  0  0
 17 18  1  0  0  0  0
 17 42  1  1  0  0  0
 18 45  1  6  0  0  0
 18 16  1  0  0  0  0
 19 17  1  0  0  0  0
 19 20  1  6  0  0  0
 21 43  1  6  0  0  0
 21 19  1  0  0  0  0
 22 21  1  0  0  0  0
 23 38  1  0  0  0  0
 23 24  2  0  0  0  0
 24 25  1  0  0  0  0
 25 22  2  0  0  0  0
 26 52  2  0  0  0  0
 26 23  1  0  0  0  0
 27  7  1  0  0  0  0
 27 49  2  0  0  0  0
 27 28  1  0  0  0  0
 28 29  1  0  0  0  0
 29 26  1  0  0  0  0
 31 39  1  1  0  0  0
 32 31  1  0  0  0  0
 32 33  2  0  0  0  0
 33 34  1  0  0  0  0
 34 35  1  0  0  0  0
 35 36  1  0  0  0  0
 35 10  1  0  0  0  0
 35 37  1  6  0  0  0
 36 11  1  0  0  0  0
 39 40  1  0  0  0  0
 44 46  1  0  0  0  0
 46 47  1  0  0  0  0
 46 48  2  0  0  0  0
 53 28  2  0  0  0  0
 53 54  1  0  0  0  0
 54 55  2  0  0  0  0
 55  1  1  0  0  0  0
 56 53  1  0  0  0  0
 57 58  1  0  0  0  0
 58 59  1  0  0  0  0
 58 60  1  0  0  0  0
M  END
