740
 OpenBabel10141417513D

 15 16  0  0  0  0  0  0  0  0999 V2000
    2.2735   -1.3086    0.1123 S   0  0  0  0  0  0  0  0  0  0  0  0
   -3.6278    0.3499   -1.7410 F   0  0  0  0  0  0  0  0  0  0  0  0
   -4.6991   -1.4994   -1.2985 F   0  0  0  0  0  0  0  0  0  0  0  0
   -4.7515    0.1494    0.1415 F   0  0  0  0  0  0  0  0  0  0  0  0
   -2.8546   -1.0711   -0.0912 O   0  0  0  0  0  0  0  0  0  0  0  0
    2.1870    1.2516   -0.0645 N   0  0  0  0  0  0  0  0  0  0  0  0
    4.3444    0.3680   -0.0020 N   0  0  0  0  0  0  0  0  0  0  0  0
    0.7203   -0.5760    0.0333 C   0  0  0  0  0  0  0  0  0  0  0  0
    0.8747    0.8061   -0.0541 C   0  0  0  0  0  0  0  0  0  0  0  0
   -0.5461   -1.1809    0.0427 C   0  0  0  0  0  0  0  0  0  0  0  0
   -1.6837   -0.3715   -0.0675 C   0  0  0  0  0  0  0  0  0  0  0  0
   -0.2837    1.6086   -0.1182 C   0  0  0  0  0  0  0  0  0  0  0  0
   -1.5559    1.0136   -0.1149 C   0  0  0  0  0  0  0  0  0  0  0  0
    3.0048    0.2371   -0.0003 C   0  0  0  0  0  0  0  0  0  0  0  0
   -3.9735   -0.4987   -0.7501 C   0  0  0  0  0  0  0  0  0  0  0  0
  1  8  1  0  0  0  0
  1 14  1  0  0  0  0
  2 15  1  0  0  0  0
  3 15  1  0  0  0  0
  4 15  1  0  0  0  0
  5 11  1  0  0  0  0
  5 15  1  0  0  0  0
  6  9  1  0  0  0  0
  6 14  2  0  0  0  0
  7 14  1  0  0  0  0
  8  9  2  0  0  0  0
  8 10  1  0  0  0  0
  9 12  1  0  0  0  0
 10 11  2  0  0  0  0
 11 13  1  0  0  0  0
 12 13  2  0  0  0  0
M  END
