896
 OpenBabel10141417493D

 27 30  0  0  1  0  0  0  0  0999 V2000
    6.2595    0.0282    2.5343 O   0  0  0  0  0  0  0  0  0  0  0  0
    0.6958    0.9828    3.0119 O   0  0  0  0  0  0  0  0  0  0  0  0
    7.1049    3.4218   -3.0684 O   0  0  0  0  0  0  0  0  0  0  0  0
    2.8034   -1.3886    1.9616 C   0  0  1  0  0  0  0  0  0  0  0  0
    2.5088   -0.5157    0.7255 C   0  0  3  0  0  0  0  0  0  0  0  0
    1.3962   -1.3519    2.7022 C   0  0  1  0  0  0  0  0  0  0  0  0
    3.6546   -0.2721   -0.2698 C   0  0  3  0  0  0  0  0  0  0  0  0
    4.9781    0.1514    0.4607 C   0  0  3  0  0  0  0  0  0  0  0  0
    0.3603   -1.3376    1.4889 C   0  0  1  0  0  0  0  0  0  0  0  0
    1.1859   -1.0620    0.2076 C   0  0  0  0  0  0  0  0  0  0  0  0
    3.9955   -0.7437    2.6877 C   0  0  0  0  0  0  0  0  0  0  0  0
    5.2373   -0.6288    1.7834 C   0  0  2  0  0  0  0  0  0  0  0  0
    6.2320    0.2049   -0.5144 C   0  0  1  0  0  0  0  0  0  0  0  0
    3.9012   -1.3324   -1.3466 C   0  0  0  0  0  0  0  0  0  0  0  0
    3.1805   -2.8537    1.6135 C   0  0  0  0  0  0  0  0  0  0  0  0
    1.1570   -2.5368    3.6553 C   0  0  0  0  0  0  0  0  0  0  0  0
    1.2085   -0.0224    3.5151 C   0  0  0  0  0  0  0  0  0  0  0  0
    4.8386   -0.8049   -2.4429 C   0  0  0  0  0  0  0  0  0  0  0  0
    5.7380    0.3105   -1.9610 C   0  0  0  0  0  0  0  0  0  0  0  0
   -0.5287   -2.5677    1.3047 C   0  0  0  0  0  0  0  0  0  0  0  0
    7.1560   -1.0329   -0.4280 C   0  0  0  0  0  0  0  0  0  0  0  0
    7.0992    1.4024   -0.1398 C   0  0  0  0  0  0  0  0  0  0  0  0
    1.7066    0.0726    4.9504 C   0  0  0  0  0  0  0  0  0  0  0  0
    6.0164    1.3509   -2.7674 C   0  0  0  0  0  0  0  0  0  0  0  0
    7.3832    2.4327   -0.9467 C   0  0  0  0  0  0  0  0  0  0  0  0
    6.8560    2.4815   -2.3222 C   0  0  0  0  0  0  0  0  0  0  0  0
    0.5895   -0.1341    5.9556 C   0  0  0  0  0  0  0  0  0  0  0  0
  2 17  2  0  0  0  0
  3 26  2  0  0  0  0
  4  5  1  0  0  0  0
  4  6  1  0  0  0  0
  4 11  1  0  0  0  0
  4 15  1  1  0  0  0
  5  7  1  0  0  0  0
  5 10  1  0  0  0  0
  6  9  1  0  0  0  0
  6 16  1  1  0  0  0
  6 17  1  0  0  0  0
  7  8  1  0  0  0  0
  7 14  1  0  0  0  0
  8 12  1  0  0  0  0
  8 13  1  0  0  0  0
  9 10  1  0  0  0  0
  9 20  1  6  0  0  0
 11 12  1  0  0  0  0
 12  1  1  1  0  0  0
 13 19  1  0  0  0  0
 13 22  1  0  0  0  0
 13 21  1  6  0  0  0
 14 18  1  0  0  0  0
 17 23  1  0  0  0  0
 18 19  1  0  0  0  0
 19 24  2  0  0  0  0
 22 25  2  0  0  0  0
 23 27  1  0  0  0  0
 24 26  1  0  0  0  0
 25 26  1  0  0  0  0
M  END
