
 OpenBabel10141417493D

 30 33  0  0  0  0  0  0  0  0999 V2000
    4.7247    1.6755    1.7653 Cl  0  0  0  0  0  0  0  0  0  0  0  0
   -3.9578   -1.5676    0.6811 Cl  0  0  0  0  0  0  0  0  0  0  0  0
    4.7717   -3.1802   -0.4064 Cl  0  0  0  0  0  0  0  0  0  0  0  0
    1.5792    6.5862    0.1485 O   0  0  0  0  0  0  0  0  0  0  0  0
    4.3244    6.9892    0.5536 N   0  0  0  0  0  0  0  0  0  0  0  0
    3.7136    5.7301    0.3931 N   0  0  0  0  0  0  0  0  0  0  0  0
    1.9685    2.0634    0.2430 N   0  0  0  0  0  0  0  0  0  0  0  0
    2.7223    3.1944    0.2475 N   0  0  0  0  0  0  0  0  0  0  0  0
    7.1816    6.6655    1.1649 C   0  0  0  0  0  0  0  0  0  0  0  0
    6.6367    6.4620   -0.2456 C   0  0  0  0  0  0  0  0  0  0  0  0
    6.1041    6.3927    2.2094 C   0  0  0  0  0  0  0  0  0  0  0  0
    5.3434    7.2485   -0.4668 C   0  0  0  0  0  0  0  0  0  0  0  0
    4.8349    7.1939    1.9149 C   0  0  0  0  0  0  0  0  0  0  0  0
    2.3336    5.6318    0.2406 C   0  0  0  0  0  0  0  0  0  0  0  0
    1.8634    4.2228    0.2252 C   0  0  0  0  0  0  0  0  0  0  0  0
    0.5192    3.7622    0.2248 C   0  0  0  0  0  0  0  0  0  0  0  0
    0.5904    2.3642    0.2687 C   0  0  0  0  0  0  0  0  0  0  0  0
   -0.5331    1.4052    0.4169 C   0  0  0  0  0  0  0  0  0  0  0  0
   -0.6897    4.6382    0.2432 C   0  0  0  0  0  0  0  0  0  0  0  0
    2.6483    0.8013    0.1204 C   0  0  0  0  0  0  0  0  0  0  0  0
   -1.7768    1.6608   -0.1893 C   0  0  0  0  0  0  0  0  0  0  0  0
   -0.4206    0.2350    1.1831 C   0  0  0  0  0  0  0  0  0  0  0  0
    3.9297    0.5849    0.6743 C   0  0  0  0  0  0  0  0  0  0  0  0
    2.0519   -0.2517   -0.5992 C   0  0  0  0  0  0  0  0  0  0  0  0
   -2.8513    0.7731   -0.0648 C   0  0  0  0  0  0  0  0  0  0  0  0
   -1.4645   -0.6979    1.2394 C   0  0  0  0  0  0  0  0  0  0  0  0
    4.5939   -0.6377    0.4775 C   0  0  0  0  0  0  0  0  0  0  0  0
    2.6921   -1.4918   -0.7275 C   0  0  0  0  0  0  0  0  0  0  0  0
   -2.6774   -0.4230    0.6176 C   0  0  0  0  0  0  0  0  0  0  0  0
    3.9695   -1.6711   -0.2106 C   0  0  0  0  0  0  0  0  0  0  0  0
  1 23  1  0  0  0  0
  2 29  1  0  0  0  0
  3 30  1  0  0  0  0
  4 14  2  0  0  0  0
  5  6  1  0  0  0  0
  5 12  1  0  0  0  0
  5 13  1  0  0  0  0
  6 14  1  0  0  0  0
  7  8  1  0  0  0  0
  7 17  1  0  0  0  0
  7 20  1  0  0  0  0
  8 15  2  0  0  0  0
  9 10  1  0  0  0  0
  9 11  1  0  0  0  0
 10 12  1  0  0  0  0
 11 13  1  0  0  0  0
 14 15  1  0  0  0  0
 15 16  1  0  0  0  0
 16 17  2  0  0  0  0
 16 19  1  0  0  0  0
 17 18  1  0  0  0  0
 18 21  2  0  0  0  0
 18 22  1  0  0  0  0
 20 23  2  0  0  0  0
 20 24  1  0  0  0  0
 21 25  1  0  0  0  0
 22 26  2  0  0  0  0
 23 27  1  0  0  0  0
 24 28  2  0  0  0  0
 25 29  2  0  0  0  0
 26 29  1  0  0  0  0
 27 30  2  0  0  0  0
 28 30  1  0  0  0  0
M  END
