734
 OpenBabel10141417503D

 30 34  0  0  0  0  0  0  0  0999 V2000
    6.3717    6.1997   10.9618 F   0  0  0  0  0  0  0  0  0  0  0  0
    6.5284    2.7429    7.6584 O   0  0  0  0  0  0  0  0  0  0  0  0
   12.0386    4.3548    5.6480 O   0  0  0  0  0  0  0  0  0  0  0  0
    9.2703    3.3994    2.6282 N   0  0  0  0  0  0  0  0  0  0  0  0
   11.4964    6.5397    5.1163 N   0  0  0  0  0  0  0  0  0  0  0  0
    7.3734    2.4551    6.6143 N   0  0  0  0  0  0  0  0  0  0  0  0
   13.1932    7.2089    3.7034 N   0  0  0  0  0  0  0  0  0  0  0  0
    9.3762    3.4154    5.6239 C   0  0  0  0  0  0  0  0  0  0  0  0
    9.0719    4.6095    4.7214 C   0  0  0  0  0  0  0  0  0  0  0  0
    9.6405    2.1547    4.8198 C   0  0  0  0  0  0  0  0  0  0  0  0
    8.8256    4.6160    3.2451 C   0  0  0  0  0  0  0  0  0  0  0  0
    8.9578    2.2356    3.4574 C   0  0  0  0  0  0  0  0  0  0  0  0
   10.5770    3.4506    1.9656 C   0  0  0  0  0  0  0  0  0  0  0  0
    8.3221    3.3899    6.6626 C   0  0  0  0  0  0  0  0  0  0  0  0
   11.9221    3.6396    2.7554 C   0  0  0  0  0  0  0  0  0  0  0  0
   12.2324    4.9911    3.4145 C   0  0  0  0  0  0  0  0  0  0  0  0
    8.1142    4.3287    7.7279 C   0  0  0  0  0  0  0  0  0  0  0  0
   10.2401    6.9338    5.7735 C   0  0  0  0  0  0  0  0  0  0  0  0
   10.2425    8.1491    6.6599 C   0  0  0  0  0  0  0  0  0  0  0  0
   12.3014    7.4821    4.6136 C   0  0  0  0  0  0  0  0  0  0  0  0
   10.8344    9.2479    5.8140 C   0  0  0  0  0  0  0  0  0  0  0  0
   12.2202    8.8243    5.3116 C   0  0  0  0  0  0  0  0  0  0  0  0
   11.9270    5.2297    4.8639 C   0  0  0  0  0  0  0  0  0  0  0  0
   13.1275    5.9425    3.1035 C   0  0  0  0  0  0  0  0  0  0  0  0
    6.9520    3.8592    8.2992 C   0  0  0  0  0  0  0  0  0  0  0  0
    8.7024    5.4788    8.3106 C   0  0  0  0  0  0  0  0  0  0  0  0
   14.2351    5.6585    2.1435 C   0  0  0  0  0  0  0  0  0  0  0  0
    6.3337    4.4448    9.3916 C   0  0  0  0  0  0  0  0  0  0  0  0
    8.0676    6.1473    9.3555 C   0  0  0  0  0  0  0  0  0  0  0  0
    6.9163    5.6065    9.8946 C   0  0  0  0  0  0  0  0  0  0  0  0
  1 30  1  0  0  0  0
  2  6  1  0  0  0  0
  2 25  1  0  0  0  0
  3 23  2  0  0  0  0
  4 11  1  0  0  0  0
  4 12  1  0  0  0  0
  4 13  1  0  0  0  0
  5 18  1  0  0  0  0
  5 20  1  0  0  0  0
  5 23  1  0  0  0  0
  6 14  2  0  0  0  0
  7 20  2  0  0  0  0
  7 24  1  0  0  0  0
  8  9  1  0  0  0  0
  8 10  1  0  0  0  0
  8 14  1  0  0  0  0
  9 11  1  0  0  0  0
 10 12  1  0  0  0  0
 13 15  1  0  0  0  0
 14 17  1  0  0  0  0
 15 16  1  0  0  0  0
 16 23  1  0  0  0  0
 16 24  2  0  0  0  0
 17 25  2  0  0  0  0
 17 26  1  0  0  0  0
 18 19  1  0  0  0  0
 19 21  1  0  0  0  0
 20 22  1  0  0  0  0
 21 22  1  0  0  0  0
 24 27  1  0  0  0  0
 25 28  1  0  0  0  0
 26 29  2  0  0  0  0
 28 30  2  0  0  0  0
 29 30  1  0  0  0  0
M  END
