728
 OpenBabel10141417513D

 38 43  0  0  1  0  0  0  0  0999 V2000
    1.0466    1.3882   -2.7454 O   0  0  0  0  0  0  0  0  0  0  0  0
    8.3152   -3.7755    0.7527 O   0  0  0  0  0  0  0  0  0  0  0  0
    9.5441    0.1729    4.2044 O   0  0  0  0  0  0  0  0  0  0  0  0
    1.7722    3.5136   -2.3427 O   0  0  0  0  0  0  0  0  0  0  0  0
    0.5093   -0.8964    0.3255 N   0  3  0  0  0  0  0  0  0  0  0  0
    9.0326   -1.1341    1.5742 N   0  0  0  0  0  0  0  0  0  0  0  0
    3.0497   -0.7204   -2.2756 C   0  0  2  0  0  0  0  0  0  0  0  0
    3.1339    0.6609   -1.5618 C   0  0  1  0  0  0  0  0  0  0  0  0
    4.3421   -1.4326   -2.7235 C   0  0  1  0  0  0  0  0  0  0  0  0
    5.6661   -0.7996   -2.2632 C   0  0  1  0  0  0  0  0  0  0  0  0
    6.5445   -1.6082   -1.1423 C   0  0  2  0  0  0  0  0  0  0  0  0
    0.9007   -0.4649   -1.1641 C   0  0  2  0  0  0  0  0  0  0  0  0
    1.5845    0.9521   -1.4661 C   0  0  2  0  0  0  0  0  0  0  0  0
    1.8560   -1.5082   -1.7583 C   0  0  0  0  0  0  0  0  0  0  0  0
    4.1580    1.4050   -2.4538 C   0  0  0  0  0  0  0  0  0  0  0  0
    5.9880   -3.0384   -0.7507 C   0  0  1  0  0  0  0  0  0  0  0  0
    5.5902    0.7682   -2.2563 C   0  0  0  0  0  0  0  0  0  0  0  0
    4.3486   -2.9493   -2.6694 C   0  0  0  0  0  0  0  0  0  0  0  0
    4.6156   -3.4479   -1.2768 C   0  0  0  0  0  0  0  0  0  0  0  0
    6.8844   -0.7812    0.1421 C   0  0  0  0  0  0  0  0  0  0  0  0
    3.6827    0.8858   -0.1415 C   0  0  0  0  0  0  0  0  0  0  0  0
    5.9789   -3.3240    0.7676 C   0  0  0  0  0  0  0  0  0  0  0  0
    7.5902   -1.4734    1.3806 C   0  0  1  0  0  0  0  0  0  0  0  0
    7.9216   -1.8526   -1.8483 C   0  0  0  0  0  0  0  0  0  0  0  0
   -0.1460   -2.3073    0.2835 C   0  0  0  0  0  0  0  0  0  0  0  0
   -0.6106   -0.0066    0.8785 C   0  0  0  0  0  0  0  0  0  0  0  0
    7.3126   -3.0032    1.4104 C   0  0  1  0  0  0  0  0  0  0  0  0
    1.7066   -0.9285    1.2810 C   0  0  0  0  0  0  0  0  0  0  0  0
   -1.3143   -2.2937    1.2543 C   0  0  0  0  0  0  0  0  0  0  0  0
   -1.4189   -0.8910    1.8140 C   0  0  0  0  0  0  0  0  0  0  0  0
    1.4912   -1.3374    2.6983 C   0  0  0  0  0  0  0  0  0  0  0  0
    1.1843    2.7168   -3.0377 C   0  0  0  0  0  0  0  0  0  0  0  0
    9.6831   -1.7992    2.7480 C   0  0  0  0  0  0  0  0  0  0  0  0
    9.2735    0.3262    1.7710 C   0  0  0  0  0  0  0  0  0  0  0  0
    9.3037   -1.2331    4.1277 C   0  0  0  0  0  0  0  0  0  0  0  0
    8.8626    0.8636    3.1558 C   0  0  0  0  0  0  0  0  0  0  0  0
    0.4998    3.0446   -4.3384 C   0  0  0  0  0  0  0  0  0  0  0  0
    1.5785   -2.5808    3.1858 C   0  0  0  0  0  0  0  0  0  0  0  0
  1 32  1  0  0  0  0
  3 35  1  0  0  0  0
  3 36  1  0  0  0  0
  4 32  2  0  0  0  0
  5 25  1  0  0  0  0
  5 26  1  0  0  0  0
  5 28  1  0  0  0  0
  6 33  1  0  0  0  0
  6 34  1  0  0  0  0
  7  8  1  0  0  0  0
  7  9  1  0  0  0  0
  7 14  1  6  0  0  0
  8 13  1  0  0  0  0
  8 15  1  0  0  0  0
  8 21  1  6  0  0  0
  9 10  1  0  0  0  0
  9 18  1  1  0  0  0
 10 11  1  0  0  0  0
 10 17  1  6  0  0  0
 11 16  1  0  0  0  0
 11 20  1  0  0  0  0
 11 24  1  6  0  0  0
 12 13  1  0  0  0  0
 12 14  1  0  0  0  0
 12  5  1  6  0  0  0
 13  1  1  6  0  0  0
 15 17  1  0  0  0  0
 16 19  1  6  0  0  0
 16 22  1  0  0  0  0
 18 19  1  0  0  0  0
 20 23  1  0  0  0  0
 22 27  1  0  0  0  0
 23 27  1  0  0  0  0
 23  6  1  6  0  0  0
 25 29  1  0  0  0  0
 26 30  1  0  0  0  0
 27  2  1  1  0  0  0
 28 31  1  0  0  0  0
 29 30  1  0  0  0  0
 31 38  2  0  0  0  0
 32 37  1  0  0  0  0
 33 35  1  0  0  0  0
 34 36  1  0  0  0  0
M  CHG  1   5   1
M  END
