268
 OpenBabel10141417493D

 19 20  0  0  0  0  0  0  0  0999 V2000
    4.5957   -1.2187   -4.2246 O   0  0  0  0  0  0  0  0  0  0  0  0
    8.2205    4.1238   -0.0514 N   0  0  0  0  0  0  0  0  0  0  0  0
    5.5823   -2.0989   -2.3175 N   0  0  0  0  0  0  0  0  0  0  0  0
    8.0915    2.6418   -0.0276 C   0  0  0  0  0  0  0  0  0  0  0  0
    6.6627    2.0563   -0.1147 C   0  0  0  0  0  0  0  0  0  0  0  0
    6.6650    0.5402   -0.1278 C   0  0  0  0  0  0  0  0  0  0  0  0
    9.6496    4.4657    0.1648 C   0  0  0  0  0  0  0  0  0  0  0  0
    7.6339    4.7193   -1.2669 C   0  0  0  0  0  0  0  0  0  0  0  0
    6.1335   -0.1990   -1.1799 C   0  0  0  0  0  0  0  0  0  0  0  0
    5.4808    0.2513   -2.4614 C   0  0  0  0  0  0  0  0  0  0  0  0
    6.1632   -1.5981   -1.1646 C   0  0  0  0  0  0  0  0  0  0  0  0
   10.0404    5.9539    0.2262 C   0  0  0  0  0  0  0  0  0  0  0  0
    8.2257    4.2594   -2.6080 C   0  0  0  0  0  0  0  0  0  0  0  0
    7.2144   -0.1924    0.9418 C   0  0  0  0  0  0  0  0  0  0  0  0
    5.1416   -1.0764   -3.1495 C   0  0  0  0  0  0  0  0  0  0  0  0
    6.7116   -2.3225   -0.1304 C   0  0  0  0  0  0  0  0  0  0  0  0
    7.2445   -1.6014    0.9364 C   0  0  0  0  0  0  0  0  0  0  0  0
   11.5527    6.1129    0.4035 C   0  0  0  0  0  0  0  0  0  0  0  0
    7.5002    4.8923   -3.7875 C   0  0  0  0  0  0  0  0  0  0  0  0
  1 15  2  0  0  0  0
  2  4  1  0  0  0  0
  2  7  1  0  0  0  0
  2  8  1  0  0  0  0
  3 11  1  0  0  0  0
  3 15  1  0  0  0  0
  4  5  1  0  0  0  0
  5  6  1  0  0  0  0
  6  9  2  0  0  0  0
  6 14  1  0  0  0  0
  7 12  1  0  0  0  0
  8 13  1  0  0  0  0
  9 10  1  0  0  0  0
  9 11  1  0  0  0  0
 10 15  1  0  0  0  0
 11 16  2  0  0  0  0
 12 18  1  0  0  0  0
 13 19  1  0  0  0  0
 14 17  2  0  0  0  0
 16 17  1  0  0  0  0
M  END
