
 OpenBabel10141417483D

 25 27  0  0  0  0  0  0  0  0999 V2000
   -2.8969    0.6002    2.3247 S   0  0  0  0  0  0  0  0  0  0  0  0
   -0.4722   -5.3089    0.2026 O   0  0  0  0  0  0  0  0  0  0  0  0
   -2.5165    1.0254   -1.4878 O   0  0  0  0  0  0  0  0  0  0  0  0
   -5.2779   -0.3757    1.8136 O   0  0  0  0  0  0  0  0  0  0  0  0
   -0.1073   -7.1538   -3.0873 N   0  0  0  0  0  0  0  0  0  0  0  0
   -3.9244    0.0908    0.0359 N   0  0  0  0  0  0  0  0  0  0  0  0
    1.0322   -8.8084   -1.7771 N   0  0  0  0  0  0  0  0  0  0  0  0
   -1.9046    1.0533    0.8619 C   0  0  3  0  0  0  0  0  0  0  0  0
   -0.5395    0.3634    0.7868 C   0  0  0  0  0  0  0  0  0  0  0  0
   -0.5549   -1.1423    0.6413 C   0  0  0  0  0  0  0  0  0  0  0  0
   -2.7806    0.7310   -0.3290 C   0  0  0  0  0  0  0  0  0  0  0  0
   -0.7367   -6.6853   -1.8253 C   0  0  0  0  0  0  0  0  0  0  0  0
   -0.5269   -1.9907    1.7559 C   0  0  0  0  0  0  0  0  0  0  0  0
   -0.5988   -1.7144   -0.6348 C   0  0  0  0  0  0  0  0  0  0  0  0
    0.2174   -5.8484   -0.9484 C   0  0  0  0  0  0  0  0  0  0  0  0
   -0.5077   -3.9432    0.3056 C   0  0  0  0  0  0  0  0  0  0  0  0
   -0.5133   -3.3841    1.5881 C   0  0  0  0  0  0  0  0  0  0  0  0
   -0.5905   -3.0991   -0.7976 C   0  0  0  0  0  0  0  0  0  0  0  0
   -4.2256    0.0028    1.3567 C   0  0  0  0  0  0  0  0  0  0  0  0
    0.9493   -8.0763   -2.9083 C   0  0  0  0  0  0  0  0  0  0  0  0
   -1.0693   -7.6188   -4.0954 C   0  0  0  0  0  0  0  0  0  0  0  0
    1.9580   -8.1526   -3.8763 C   0  0  0  0  0  0  0  0  0  0  0  0
    3.0789   -8.9611   -3.6638 C   0  0  0  0  0  0  0  0  0  0  0  0
    2.1195   -9.6005   -1.5993 C   0  0  0  0  0  0  0  0  0  0  0  0
    3.1664   -9.7012   -2.4966 C   0  0  0  0  0  0  0  0  0  0  0  0
  1  8  1  0  0  0  0
  1 19  1  0  0  0  0
  2 15  1  0  0  0  0
  2 16  1  0  0  0  0
  3 11  2  0  0  0  0
  4 19  2  0  0  0  0
  5 12  1  0  0  0  0
  5 20  1  0  0  0  0
  5 21  1  0  0  0  0
  6 11  1  0  0  0  0
  6 19  1  0  0  0  0
  7 20  1  0  0  0  0
  7 24  2  0  0  0  0
  8  9  1  0  0  0  0
  8 11  1  0  0  0  0
  9 10  1  0  0  0  0
 10 13  2  0  0  0  0
 10 14  1  0  0  0  0
 12 15  1  0  0  0  0
 13 17  1  0  0  0  0
 14 18  2  0  0  0  0
 16 17  2  0  0  0  0
 16 18  1  0  0  0  0
 20 22  2  0  0  0  0
 22 23  1  0  0  0  0
 23 25  2  0  0  0  0
 24 25  1  0  0  0  0
M  END
