817
 OpenBabel10141417493D

 22 24  0  0  0  0  0  0  0  0999 V2000
    0.4214   -0.3793   -0.4090 O   0  0  0  0  0  0  0  0  0  0  0  0
    0.7373    2.2827    0.1937 O   0  0  0  0  0  0  0  0  0  0  0  0
    2.7062    3.1178   -0.4339 O   0  0  0  0  0  0  0  0  0  0  0  0
    4.4692   -0.6951    0.0031 N   0  0  0  0  0  0  0  0  0  0  0  0
    5.2873   -8.2053    0.6469 N   0  0  0  0  0  0  0  0  0  0  0  0
    3.6779   -1.8686    0.0449 C   0  0  0  0  0  0  0  0  0  0  0  0
    2.2833   -1.7768   -0.1192 C   0  0  0  0  0  0  0  0  0  0  0  0
    5.9378   -0.7828   -0.1714 C   0  0  0  0  0  0  0  0  0  0  0  0
    4.2008   -3.1577    0.2562 C   0  0  0  0  0  0  0  0  0  0  0  0
    3.4221   -4.3390    0.1600 C   0  0  0  0  0  0  0  0  0  0  0  0
    3.8226    0.5351   -0.0466 C   0  0  0  0  0  0  0  0  0  0  0  0
    1.6309   -0.4469   -0.2278 C   0  0  0  0  0  0  0  0  0  0  0  0
    2.4982    0.7493   -0.1307 C   0  0  0  0  0  0  0  0  0  0  0  0
    1.4772   -2.9212   -0.1882 C   0  0  0  0  0  0  0  0  0  0  0  0
    2.0478   -4.1890   -0.0802 C   0  0  0  0  0  0  0  0  0  0  0  0
    4.0493   -5.6770    0.3096 C   0  0  0  0  0  0  0  0  0  0  0  0
    6.3430   -1.2134   -1.5792 C   0  0  0  0  0  0  0  0  0  0  0  0
    2.0193    2.1337   -0.1619 C   0  0  0  0  0  0  0  0  0  0  0  0
    3.3661   -6.7591    0.8816 C   0  0  0  0  0  0  0  0  0  0  0  0
    5.3693   -5.9164   -0.1058 C   0  0  0  0  0  0  0  0  0  0  0  0
    4.0142   -7.9791    1.0262 C   0  0  0  0  0  0  0  0  0  0  0  0
    5.9369   -7.1679    0.0874 C   0  0  0  0  0  0  0  0  0  0  0  0
  1 12  2  0  0  0  0
  2 18  1  0  0  0  0
  3 18  2  0  0  0  0
  4  6  1  0  0  0  0
  4  8  1  0  0  0  0
  4 11  1  0  0  0  0
  5 21  2  0  0  0  0
  5 22  1  0  0  0  0
  6  7  2  0  0  0  0
  6  9  1  0  0  0  0
  7 12  1  0  0  0  0
  7 14  1  0  0  0  0
  8 17  1  0  0  0  0
  9 10  2  0  0  0  0
 10 15  1  0  0  0  0
 10 16  1  0  0  0  0
 11 13  2  0  0  0  0
 12 13  1  0  0  0  0
 13 18  1  0  0  0  0
 14 15  2  0  0  0  0
 16 19  2  0  0  0  0
 16 20  1  0  0  0  0
 19 21  1  0  0  0  0
 20 22  2  0  0  0  0
M  END
