
 OpenBabel10141418023D

 22 24  0  0  1  0  0  0  0  0999 V2000
   -2.4102    1.4038    1.9854 S   0  0  0  0  0  0  0  0  0  0  0  0
   -2.6554   -8.3511    7.6385 O   0  0  0  0  0  0  0  0  0  0  0  0
   -2.3505   -3.9189    2.9394 N   0  0  0  0  0  0  0  0  0  0  0  0
   -1.4492   -4.8643    3.7622 C   0  0  3  0  0  0  0  0  0  0  0  0
   -1.9951   -6.2874    3.9119 C   0  0  0  0  0  0  0  0  0  0  0  0
   -0.9480   -4.3751    5.1495 C   0  0  0  0  0  0  0  0  0  0  0  0
   -1.5170   -7.1889    5.0507 C   0  0  0  0  0  0  0  0  0  0  0  0
   -1.4072   -5.1140    6.3947 C   0  0  0  0  0  0  0  0  0  0  0  0
   -1.7349   -6.4920    6.3761 C   0  0  0  0  0  0  0  0  0  0  0  0
   -1.6786   -2.5509    2.8448 C   0  0  0  0  0  0  0  0  0  0  0  0
   -3.7677   -3.7713    3.3962 C   0  0  0  0  0  0  0  0  0  0  0  0
   -2.3057   -1.4035    1.9873 C   0  0  0  0  0  0  0  0  0  0  0  0
   -4.9055   -4.8174    3.1269 C   0  0  0  0  0  0  0  0  0  0  0  0
   -1.4893   -4.3981    7.6032 C   0  0  0  0  0  0  0  0  0  0  0  0
   -2.2226   -7.0591    7.5448 C   0  0  0  0  0  0  0  0  0  0  0  0
   -1.9420   -4.9787    8.7597 C   0  0  0  0  0  0  0  0  0  0  0  0
   -2.3435   -6.3310    8.7298 C   0  0  0  0  0  0  0  0  0  0  0  0
   -1.5270   -0.0870    1.9996 C   0  0  0  0  0  0  0  0  0  0  0  0
   -4.9969   -6.0085    4.0691 C   0  0  0  0  0  0  0  0  0  0  0  0
   -0.1605    0.1753    1.9711 C   0  0  0  0  0  0  0  0  0  0  0  0
    0.1288    1.5683    2.1585 C   0  0  0  0  0  0  0  0  0  0  0  0
   -1.0042    2.3457    2.1317 C   0  0  0  0  0  0  0  0  0  0  0  0
  1 18  1  0  0  0  0
  1 22  1  0  0  0  0
  2 15  1  0  0  0  0
  3  4  1  0  0  0  0
  3 10  1  0  0  0  0
  3 11  1  0  0  0  0
  4  5  1  0  0  0  0
  4  6  1  0  0  0  0
  5  7  1  0  0  0  0
  6  8  1  0  0  0  0
  7  9  1  0  0  0  0
  8  9  2  0  0  0  0
  8 14  1  0  0  0  0
  9 15  1  0  0  0  0
 10 12  1  0  0  0  0
 11 13  1  0  0  0  0
 12 18  1  0  0  0  0
 13 19  1  0  0  0  0
 14 16  2  0  0  0  0
 15 17  2  0  0  0  0
 16 17  1  0  0  0  0
 18 20  2  0  0  0  0
 20 21  1  0  0  0  0
 21 22  2  0  0  0  0
M  END
