1001
 OpenBabel10141418193D

 17 17  0  0  1  0  0  0  0  0999 V2000
    0.9543    0.0427    0.0637 O   0  0  0  0  0  0  0  0  0  0  0  0
    3.4022   -4.5563   -3.6316 O   0  0  0  0  0  0  0  0  0  0  0  0
    0.9057   -4.9694   -3.9254 O   0  0  0  0  0  0  0  0  0  0  0  0
    2.8296    0.7652    2.1628 N   0  0  0  0  0  0  0  0  0  0  0  0
    3.4699    0.6194    3.4950 C   0  0  0  0  0  0  0  0  0  0  0  0
    3.0226   -0.3954    1.2641 C   0  0  0  0  0  0  0  0  0  0  0  0
    2.3563   -0.1885   -0.1254 C   0  0  3  0  0  0  0  0  0  0  0  0
    2.9278   -0.5964    4.2662 C   0  0  0  0  0  0  0  0  0  0  0  0
    5.0047    0.5293    3.3934 C   0  0  0  0  0  0  0  0  0  0  0  0
    3.1223    1.8869    4.3012 C   0  0  0  0  0  0  0  0  0  0  0  0
    2.5954   -1.3710   -1.0542 C   0  0  0  0  0  0  0  0  0  0  0  0
    1.5395   -2.1108   -1.6096 C   0  0  0  0  0  0  0  0  0  0  0  0
    3.9099   -1.7361   -1.3999 C   0  0  0  0  0  0  0  0  0  0  0  0
    1.7582   -3.1956   -2.4829 C   0  0  0  0  0  0  0  0  0  0  0  0
    3.0847   -3.5274   -2.7897 C   0  0  0  0  0  0  0  0  0  0  0  0
    4.1467   -2.8117   -2.2556 C   0  0  0  0  0  0  0  0  0  0  0  0
    0.5521   -3.9197   -3.0229 C   0  0  0  0  0  0  0  0  0  0  0  0
  1  7  1  0  0  0  0
  2 15  1  0  0  0  0
  3 17  1  0  0  0  0
  4  5  1  0  0  0  0
  4  6  1  0  0  0  0
  5  8  1  0  0  0  0
  5  9  1  0  0  0  0
  5 10  1  0  0  0  0
  6  7  1  0  0  0  0
  7 11  1  0  0  0  0
 11 12  2  0  0  0  0
 11 13  1  0  0  0  0
 12 14  1  0  0  0  0
 13 16  2  0  0  0  0
 14 15  2  0  0  0  0
 14 17  1  0  0  0  0
 15 16  1  0  0  0  0
M  END
