5147
 OpenBabel10141417483D

 10 10  0  0  0  0  0  0  0  0999 V2000
    1.0266   -0.2852   -0.0635 O   0  0  0  0  0  0  0  0  0  0  0  0
    2.7796    3.3724   -0.7125 O   0  0  0  0  0  0  0  0  0  0  0  0
    1.1494    2.4149    0.5240 N   0  0  0  0  0  0  0  0  0  0  0  0
    3.0482    1.0739   -0.1842 C   0  0  0  0  0  0  0  0  0  0  0  0
    2.3896   -0.1595   -0.0954 C   0  0  0  0  0  0  0  0  0  0  0  0
    4.4450    1.1007   -0.2908 C   0  0  0  0  0  0  0  0  0  0  0  0
    3.1184   -1.3469   -0.0650 C   0  0  0  0  0  0  0  0  0  0  0  0
    5.1737   -0.0903   -0.2729 C   0  0  0  0  0  0  0  0  0  0  0  0
    4.5107   -1.3117   -0.1521 C   0  0  0  0  0  0  0  0  0  0  0  0
    2.3320    2.3734   -0.1675 C   0  0  0  0  0  0  0  0  0  0  0  0
  1  5  1  0  0  0  0
  2 10  2  0  0  0  0
  3 10  1  0  0  0  0
  4  5  1  0  0  0  0
  4  6  2  0  0  0  0
  4 10  1  0  0  0  0
  5  7  2  0  0  0  0
  6  8  1  0  0  0  0
  7  9  1  0  0  0  0
  8  9  2  0  0  0  0
M  END
