1399
 OpenBabel10141417553D

 19 20  0  0  0  0  0  0  0  0999 V2000
    1.1827    0.3993    0.4594 O   0  0  0  0  0  0  0  0  0  0  0  0
    1.0827   -3.0015   -2.1360 O   0  0  0  0  0  0  0  0  0  0  0  0
    2.4256   -1.1796   -0.7501 O   0  0  0  0  0  0  0  0  0  0  0  0
    0.7885    4.4719    0.8228 O   0  0  0  0  0  0  0  0  0  0  0  0
   -0.4263    2.6087    1.0048 O   0  0  0  0  0  0  0  0  0  0  0  0
    2.2168    1.1606    1.0533 C   0  0  0  0  0  0  0  0  0  0  0  0
    0.0483   -1.2705   -0.7501 C   0  0  0  0  0  0  0  0  0  0  0  0
    1.9702    2.5139    1.3407 C   0  0  0  0  0  0  0  0  0  0  0  0
   -0.0185   -2.3704   -1.6193 C   0  0  0  0  0  0  0  0  0  0  0  0
    3.4315    0.5722    1.4126 C   0  0  0  0  0  0  0  0  0  0  0  0
    1.3683   -0.7059   -0.3613 C   0  0  0  0  0  0  0  0  0  0  0  0
    2.9712    3.2732    1.9643 C   0  0  0  0  0  0  0  0  0  0  0  0
   -1.1467   -0.7149   -0.2657 C   0  0  0  0  0  0  0  0  0  0  0  0
    4.4153    1.3385    2.0389 C   0  0  0  0  0  0  0  0  0  0  0  0
    4.1893    2.6866    2.3110 C   0  0  0  0  0  0  0  0  0  0  0  0
   -1.2542   -2.8894   -2.0079 C   0  0  0  0  0  0  0  0  0  0  0  0
   -2.3805   -1.2374   -0.6543 C   0  0  0  0  0  0  0  0  0  0  0  0
   -2.4342   -2.3204   -1.5280 C   0  0  0  0  0  0  0  0  0  0  0  0
    0.6590    3.1493    1.0474 C   0  0  0  0  0  0  0  0  0  0  0  0
  1  6  1  0  0  0  0
  1 11  1  0  0  0  0
  2  9  1  0  0  0  0
  3 11  2  0  0  0  0
  4 19  1  0  0  0  0
  5 19  2  0  0  0  0
  6  8  1  0  0  0  0
  6 10  2  0  0  0  0
  7  9  1  0  0  0  0
  7 11  1  0  0  0  0
  7 13  2  0  0  0  0
  8 12  2  0  0  0  0
  8 19  1  0  0  0  0
  9 16  2  0  0  0  0
 10 14  1  0  0  0  0
 12 15  1  0  0  0  0
 13 17  1  0  0  0  0
 14 15  2  0  0  0  0
 16 18  1  0  0  0  0
 17 18  2  0  0  0  0
M  END
