1347
 OpenBabel10141417543D

 38 42  0  0  0  0  0  0  0  0999 V2000
    7.1133    0.9856    1.1162 Br  0  0  0  0  0  0  0  0  0  0  0  0
    4.6275   -2.5743   -3.4281 S   0  0  0  0  0  0  0  0  0  0  0  0
    5.1279    0.0576   -3.0728 F   0  0  0  0  0  0  0  0  0  0  0  0
    6.7404   -1.2442   -2.3661 F   0  0  0  0  0  0  0  0  0  0  0  0
    6.4534   -0.9049   -4.5043 F   0  0  0  0  0  0  0  0  0  0  0  0
    3.3013    6.2703   -5.4425 O   0  0  0  0  0  0  0  0  0  0  0  0
    3.7653   -0.4642   -0.7019 O   0  0  0  0  0  0  0  0  0  0  0  0
    5.3760   -3.7807   -3.7475 O   0  0  0  0  0  0  0  0  0  0  0  0
    3.4868   -2.2114   -4.2534 O   0  0  0  0  0  0  0  0  0  0  0  0
    2.4645    5.6730   -1.9426 N   0  0  0  0  0  0  0  0  0  0  0  0
    0.4388    6.5329   -2.2033 N   0  0  0  0  0  0  0  0  0  0  0  0
    4.1879    4.6657   -4.2135 N   0  0  0  0  0  0  0  0  0  0  0  0
    3.9522   -2.7950   -1.8818 N   0  0  0  0  0  0  0  0  0  0  0  0
    0.4240    7.0212   -4.6801 C   0  0  0  0  0  0  0  0  0  0  0  0
   -0.5663    8.1642   -4.5593 C   0  0  0  0  0  0  0  0  0  0  0  0
   -1.0666    6.7928   -4.8533 C   0  0  0  0  0  0  0  0  0  0  0  0
    1.0830    6.5038   -3.4054 C   0  0  0  0  0  0  0  0  0  0  0  0
    2.3447    5.9259   -3.3104 C   0  0  0  0  0  0  0  0  0  0  0  0
    1.2637    5.9983   -1.3308 C   0  0  0  0  0  0  0  0  0  0  0  0
    3.6295    5.1378   -1.2516 C   0  0  0  0  0  0  0  0  0  0  0  0
    0.9380    5.7545    0.1113 C   0  0  0  0  0  0  0  0  0  0  0  0
    3.2884    5.6668   -4.3656 C   0  0  0  0  0  0  0  0  0  0  0  0
    3.5793    3.6257   -1.0697 C   0  0  0  0  0  0  0  0  0  0  0  0
   -0.5518    5.4984    0.3184 C   0  0  0  0  0  0  0  0  0  0  0  0
    4.6570    2.9808   -0.4218 C   0  0  0  0  0  0  0  0  0  0  0  0
    2.5105    2.8448   -1.5560 C   0  0  0  0  0  0  0  0  0  0  0  0
    4.6512    1.5718   -0.2981 C   0  0  0  0  0  0  0  0  0  0  0  0
    3.5808    0.8717   -0.8317 C   0  0  0  0  0  0  0  0  0  0  0  0
    2.4889    1.4539   -1.4527 C   0  0  0  0  0  0  0  0  0  0  0  0
    5.5044    0.5680    0.2390 C   0  0  0  0  0  0  0  0  0  0  0  0
    4.9661   -0.6699   -0.0706 C   0  0  0  0  0  0  0  0  0  0  0  0
    5.3382   -2.0860    0.0716 C   0  0  0  0  0  0  0  0  0  0  0  0
    4.8201   -3.0961   -0.7788 C   0  0  0  0  0  0  0  0  0  0  0  0
    6.2239   -2.4855    1.0849 C   0  0  0  0  0  0  0  0  0  0  0  0
    5.1454   -4.4431   -0.5740 C   0  0  0  0  0  0  0  0  0  0  0  0
    6.5472   -3.8318    1.2832 C   0  0  0  0  0  0  0  0  0  0  0  0
    5.9944   -4.8116    0.4671 C   0  0  0  0  0  0  0  0  0  0  0  0
    5.7881   -1.1073   -3.3312 C   0  0  0  0  0  0  0  0  0  0  0  0
  1 30  1  0  0  0  0
  2  8  2  0  0  0  0
  2  9  2  0  0  0  0
  2 13  1  0  0  0  0
  2 38  1  0  0  0  0
  3 38  1  0  0  0  0
  4 38  1  0  0  0  0
  5 38  1  0  0  0  0
  6 22  2  0  0  0  0
  7 28  1  0  0  0  0
  7 31  1  0  0  0  0
 10 18  1  0  0  0  0
 10 19  1  0  0  0  0
 10 20  1  0  0  0  0
 11 17  1  0  0  0  0
 11 19  2  0  0  0  0
 12 22  1  0  0  0  0
 13 33  1  0  0  0  0
 14 15  1  0  0  0  0
 14 16  1  0  0  0  0
 14 17  1  0  0  0  0
 15 16  1  0  0  0  0
 17 18  2  0  0  0  0
 18 22  1  0  0  0  0
 19 21  1  0  0  0  0
 20 23  1  0  0  0  0
 21 24  1  0  0  0  0
 23 25  2  0  0  0  0
 23 26  1  0  0  0  0
 25 27  1  0  0  0  0
 26 29  2  0  0  0  0
 27 28  2  0  0  0  0
 27 30  1  0  0  0  0
 28 29  1  0  0  0  0
 30 31  2  0  0  0  0
 31 32  1  0  0  0  0
 32 33  1  0  0  0  0
 32 34  2  0  0  0  0
 33 35  2  0  0  0  0
 34 36  1  0  0  0  0
 35 37  1  0  0  0  0
 36 37  2  0  0  0  0
M  END
