
 OpenBabel10141417523D

 49 53  0  0  1  0  0  0  0  0999 V2000
    1.5772    2.5082    1.6936 O   0  0  0  0  0  0  0  0  0  0  0  0
    4.6864   -0.6494    2.0687 O   0  0  0  0  0  0  0  0  0  0  0  0
    6.2876   -0.8428    7.2108 O   0  0  0  0  0  0  0  0  0  0  0  0
    2.1074   -0.1843    8.7004 O   0  0  0  0  0  0  0  0  0  0  0  0
    4.2865   -4.8855    7.3577 O   0  0  0  0  0  0  0  0  0  0  0  0
    1.7130   -0.4038    2.3701 N   0  0  0  0  0  0  0  0  0  0  0  0
   -0.3975    2.7892    2.8395 N   0  0  0  0  0  0  0  0  0  0  0  0
    4.6093   -1.5030    5.7567 N   0  0  0  0  0  0  0  0  0  0  0  0
    5.3256   -3.2721    8.5629 N   0  0  0  0  0  0  0  0  0  0  0  0
    3.9722    1.0586    8.4864 N   0  0  0  0  0  0  0  0  0  0  0  0
    7.2477   -5.2333    9.2220 N   0  0  0  0  0  0  0  0  0  0  0  0
   -0.7816   -1.4750    3.6470 C   0  0  3  0  0  0  0  0  0  0  0  0
    0.4682   -2.3367    3.4247 C   0  0  3  0  0  0  0  0  0  0  0  0
   -0.4329    0.0168    3.6763 C   0  0  0  0  0  0  0  0  0  0  0  0
    1.2715   -1.8199    2.2167 C   0  0  0  0  0  0  0  0  0  0  0  0
   -1.5083   -1.8951    4.9330 C   0  0  0  0  0  0  0  0  0  0  0  0
    0.0429   -3.8078    3.3000 C   0  0  0  0  0  0  0  0  0  0  0  0
    0.4542    0.4478    2.4904 C   0  0  1  0  0  0  0  0  0  0  0  0
   -1.8487   -3.3849    4.9417 C   0  0  0  0  0  0  0  0  0  0  0  0
   -0.6475   -4.2619    4.5911 C   0  0  0  0  0  0  0  0  0  0  0  0
    2.7318   -0.2181    3.4713 C   0  0  0  0  0  0  0  0  0  0  0  0
    0.6553    2.0177    2.3409 C   0  0  0  0  0  0  0  0  0  0  0  0
    4.0802   -1.0486    3.3076 C   0  0  2  0  0  0  0  0  0  0  0  0
    5.1736   -0.9745    4.4892 C   0  0  2  0  0  0  0  0  0  0  0  0
   -0.6453    4.2526    2.7286 C   0  0  0  0  0  0  0  0  0  0  0  0
    6.4667   -1.7714    4.0063 C   0  0  0  0  0  0  0  0  0  0  0  0
    0.0799    5.0227    3.8418 C   0  0  0  0  0  0  0  0  0  0  0  0
   -0.2723    4.8512    1.3644 C   0  0  0  0  0  0  0  0  0  0  0  0
   -2.1662    4.4691    2.9239 C   0  0  0  0  0  0  0  0  0  0  0  0
    7.7336   -1.9247    4.8468 C   0  0  0  0  0  0  0  0  0  0  0  0
    5.2336   -1.4411    6.9925 C   0  0  0  0  0  0  0  0  0  0  0  0
    4.4962   -2.1862    8.1312 C   0  0  2  0  0  0  0  0  0  0  0  0
    7.8865   -3.0264    5.7071 C   0  0  0  0  0  0  0  0  0  0  0  0
    8.8264   -1.0472    4.7149 C   0  0  0  0  0  0  0  0  0  0  0  0
    4.1911   -1.2340    9.2761 C   0  0  0  0  0  0  0  0  0  0  0  0
    9.0641   -3.2183    6.4434 C   0  0  0  0  0  0  0  0  0  0  0  0
   10.0122   -1.2477    5.4421 C   0  0  0  0  0  0  0  0  0  0  0  0
   10.1265   -2.3276    6.3142 C   0  0  0  0  0  0  0  0  0  0  0  0
    3.3135   -0.0937    8.8125 C   0  0  0  0  0  0  0  0  0  0  0  0
    5.1741   -4.5698    8.1499 C   0  0  0  0  0  0  0  0  0  0  0  0
    6.0413   -5.6217    8.7253 C   0  0  0  0  0  0  0  0  0  0  0  0
    5.5893   -6.9413    8.7443 C   0  0  0  0  0  0  0  0  0  0  0  0
    8.0297   -6.1953    9.7670 C   0  0  0  0  0  0  0  0  0  0  0  0
    6.3837   -7.9070    9.3312 C   0  0  0  0  0  0  0  0  0  0  0  0
    7.6327   -7.5496    9.8532 C   0  0  0  0  0  0  0  0  0  0  0  0
    9.2792   -5.8604   10.2806 C   0  0  0  0  0  0  0  0  0  0  0  0
    8.4671   -8.5101   10.4519 C   0  0  0  0  0  0  0  0  0  0  0  0
   10.1147   -6.8146   10.8775 C   0  0  0  0  0  0  0  0  0  0  0  0
    9.7071   -8.1398   10.9652 C   0  0  0  0  0  0  0  0  0  0  0  0
  1 22  2  0  0  0  0
  3 31  2  0  0  0  0
  4 39  2  0  0  0  0
  5 40  2  0  0  0  0
  6 15  1  0  0  0  0
  6 18  1  0  0  0  0
  6 21  1  0  0  0  0
  7 22  1  0  0  0  0
  7 25  1  0  0  0  0
  8 31  1  0  0  0  0
  9 40  1  0  0  0  0
 10 39  1  0  0  0  0
 11 41  2  0  0  0  0
 11 43  1  0  0  0  0
 12 13  1  0  0  0  0
 12 14  1  0  0  0  0
 12 16  1  0  0  0  0
 13 15  1  0  0  0  0
 13 17  1  0  0  0  0
 14 18  1  0  0  0  0
 16 19  1  0  0  0  0
 17 20  1  0  0  0  0
 18 22  1  1  0  0  0
 19 20  1  0  0  0  0
 21 23  1  0  0  0  0
 23  2  1  6  0  0  0
 23 24  1  0  0  0  0
 24  8  1  1  0  0  0
 24 26  1  0  0  0  0
 25 27  1  0  0  0  0
 25 28  1  0  0  0  0
 25 29  1  0  0  0  0
 26 30  1  0  0  0  0
 30 33  2  0  0  0  0
 30 34  1  0  0  0  0
 31 32  1  0  0  0  0
 32  9  1  1  0  0  0
 32 35  1  0  0  0  0
 33 36  1  0  0  0  0
 34 37  2  0  0  0  0
 35 39  1  0  0  0  0
 36 38  2  0  0  0  0
 37 38  1  0  0  0  0
 40 41  1  0  0  0  0
 41 42  1  0  0  0  0
 42 44  2  0  0  0  0
 43 45  1  0  0  0  0
 43 46  2  0  0  0  0
 44 45  1  0  0  0  0
 45 47  2  0  0  0  0
 46 48  1  0  0  0  0
 47 49  1  0  0  0  0
 48 49  2  0  0  0  0
M  END
