ChEBI
 OpenBabel10141417493D

 22 25  0  0  1  0  0  0  0  0999 V2000
   -3.8914    0.8267   -7.7478 C   0  0  1  0  0  0  0  0  0  0  0  0
   -5.4314    0.9473   -6.0177 C   0  0  2  0  0  0  0  0  0  0  0  0
   -4.9959   -0.3576   -5.3406 C   0  0  0  0  0  0  0  0  0  0  0  0
   -3.2544   -0.4901   -7.2683 C   0  0  0  0  0  0  0  0  0  0  0  0
   -3.4807    2.0235   -6.9162 C   0  0  1  0  0  0  0  0  0  0  0  0
   -4.4706    2.0979   -5.7942 C   0  0  2  0  0  0  0  0  0  0  0  0
   -3.0880    1.8302   -5.5584 O   0  0  0  0  0  0  0  0  0  0  0  0
   -5.3407    0.8706   -7.4849 N   0  0  0  0  0  0  0  0  0  0  0  0
   -6.1367   -0.1536   -8.1314 C   0  0  0  0  0  0  0  0  0  0  0  0
   -3.6374   -0.9085   -5.8254 C   0  0  2  0  0  0  0  0  0  0  0  0
   -3.6074   -2.3638   -5.7674 O   0  0  0  0  0  0  0  0  0  0  0  0
   -3.7236   -2.3430   -3.4733 O   0  0  0  0  0  0  0  0  0  0  0  0
   -3.5953   -2.9459   -4.5253 C   0  0  0  0  0  0  0  0  0  0  0  0
   -4.7191   -5.1669   -4.2468 C   0  0  0  0  0  0  0  0  0  0  0  0
   -4.6850   -6.5575   -4.5836 O   0  0  0  0  0  0  0  0  0  0  0  0
   -3.4162   -4.4590   -4.6475 C   0  0  2  0  0  0  0  0  0  0  0  0
   -2.1969   -4.9626   -3.8773 C   0  0  0  0  0  0  0  0  0  0  0  0
   -2.1280   -4.9388   -2.4748 C   0  0  0  0  0  0  0  0  0  0  0  0
   -1.0991   -5.4772   -4.5878 C   0  0  0  0  0  0  0  0  0  0  0  0
    0.0280   -5.9597   -3.9181 C   0  0  0  0  0  0  0  0  0  0  0  0
    0.0783   -5.9338   -2.5275 C   0  0  0  0  0  0  0  0  0  0  0  0
   -0.9984   -5.4229   -1.8066 C   0  0  0  0  0  0  0  0  0  0  0  0
  1  5  1  0  0  0  0
  1  4  1  6  0  0  0
  1  8  1  0  0  0  0
  2  3  1  6  0  0  0
  2  8  1  0  0  0  0
  3 10  1  0  0  0  0
  5  6  1  0  0  0  0
  5  7  1  1  0  0  0
  6  2  1  0  0  0  0
  6  7  1  1  0  0  0
  8  9  1  0  0  0  0
 10  4  1  0  0  0  0
 10 11  1  6  0  0  0
 11 13  1  0  0  0  0
 13 12  2  0  0  0  0
 14 15  1  0  0  0  0
 16 17  1  1  0  0  0
 16 14  1  0  0  0  0
 16 13  1  0  0  0  0
 17 19  1  0  0  0  0
 18 17  2  0  0  0  0
 18 22  1  0  0  0  0
 19 20  2  0  0  0  0
 20 21  1  0  0  0  0
 21 22  2  0  0  0  0
M  END
