
 OpenBabel10141417493D

 17 17  0  0  0  0  0  0  0  0999 V2000
    4.8005    0.0063   -3.1523 C   0  0  0  0  0  0  0  0  0  0  0  0
    4.2524    0.1339   -1.7385 C   0  0  0  0  0  0  0  0  0  0  0  0
    5.0760    1.1096   -0.8848 C   0  0  0  0  0  0  0  0  0  0  0  0
    4.5448    1.2741    0.5707 C   0  0  3  0  0  0  0  0  0  0  0  0
    4.5903   -0.0780    1.3041 C   0  0  0  0  0  0  0  0  0  0  0  0
    5.2722    2.4404    1.3605 C   0  0  0  0  0  0  0  0  0  0  0  0
    4.7018    2.5999    2.8025 C   0  0  0  0  0  0  0  0  0  0  0  0
    5.3241    3.7041    3.6285 C   0  0  0  0  0  0  0  0  0  0  0  0
    4.9857    3.7531    0.6386 C   0  0  0  0  0  0  0  0  0  0  0  0
    3.8572    4.1021    0.2973 O   0  0  0  0  0  0  0  0  0  0  0  0
    6.0582    4.5511    0.3638 N   0  0  0  0  0  0  0  0  0  0  0  0
    7.3187    4.0861    0.1732 C   0  0  0  0  0  0  0  0  0  0  0  0
    8.1739    4.7575   -0.3907 O   0  0  0  0  0  0  0  0  0  0  0  0
    7.5850    2.8367    0.6337 N   0  0  0  0  0  0  0  0  0  0  0  0
    6.7603    2.1351    1.4626 C   0  0  0  0  0  0  0  0  0  0  0  0
    7.2310    1.2925    2.2243 O   0  0  0  0  0  0  0  0  0  0  0  0
    4.6415    4.7257    4.1604 C   0  0  0  0  0  0  0  0  0  0  0  0
  1  2  1  0  0  0  0
  2  3  1  0  0  0  0
  3  4  1  0  0  0  0
  4  5  1  0  0  0  0
  4  6  1  0  0  0  0
  6  7  1  0  0  0  0
  6  9  1  0  0  0  0
  6 15  1  0  0  0  0
  7  8  1  0  0  0  0
  9 10  2  0  0  0  0
  9 11  1  0  0  0  0
 11 12  1  0  0  0  0
 12 13  2  0  0  0  0
 12 14  1  0  0  0  0
 14 15  1  0  0  0  0
 15 16  2  0  0  0  0
 17  8  2  0  0  0  0
M  END
