
 OpenBabel10141417503D

 14 14  0  0  0  0  0  0  0  0999 V2000
    0.8430   -0.1227    0.5042 C   0  0  0  0  0  0  0  0  0  0  0  0
    0.1280   -1.3199    0.4178 C   0  0  0  0  0  0  0  0  0  0  0  0
   -0.8319   -1.4890   -0.5772 C   0  0  0  0  0  0  0  0  0  0  0  0
   -1.0534   -0.4750   -1.5060 C   0  0  0  0  0  0  0  0  0  0  0  0
   -0.3358    0.7196   -1.4249 C   0  0  0  0  0  0  0  0  0  0  0  0
    0.5907    0.9256   -0.3947 C   0  0  0  0  0  0  0  0  0  0  0  0
    1.3083    2.2515   -0.2516 C   0  0  0  0  0  0  0  0  0  0  0  0
   -0.5268    3.3970    1.1204 C   0  0  0  0  0  0  0  0  0  0  0  0
    0.3946    3.5111   -0.1092 C   0  0  3  0  0  0  0  0  0  0  0  0
    2.0857    4.9253    1.0088 C   0  0  0  0  0  0  0  0  0  0  0  0
    1.7719    5.0677   -1.4007 C   0  0  0  0  0  0  0  0  0  0  0  0
    2.3804    6.4064   -1.5402 C   0  0  0  0  0  0  0  0  0  0  0  0
    2.9269    7.4544   -1.7332 C   0  0  0  0  0  0  0  0  0  0  0  0
    1.1289    4.8160   -0.0958 N   0  0  0  0  0  0  0  0  0  0  0  0
  1  2  1  0  0  0  0
  1  6  2  0  0  0  0
  2  3  2  0  0  0  0
  3  4  1  0  0  0  0
  4  5  2  0  0  0  0
  5  6  1  0  0  0  0
  6  7  1  0  0  0  0
  7  9  1  0  0  0  0
  9  8  1  0  0  0  0
  9 14  1  0  0  0  0
 11 12  1  0  0  0  0
 12 13  3  0  0  0  0
 14 10  1  0  0  0  0
 14 11  1  0  0  0  0
M  END
