1104
 OpenBabel10141417503D

 20 22  0  0  1  0  0  0  0  0999 V2000
    1.6919   -0.6987    2.5648 Cl  0  0  0  0  0  0  0  0  0  0  0  0
    0.9542    1.4185    0.2058 Cl  0  0  0  0  0  0  0  0  0  0  0  0
    4.9930   -5.5428    2.2545 N   0  0  0  0  0  0  0  0  0  0  0  0
    5.7935   -2.2195   -0.3273 C   0  0  2  0  0  0  0  0  0  0  0  0
    5.4728   -3.5662   -0.9995 C   0  0  0  0  0  0  0  0  0  0  0  0
    5.7220   -4.8218    1.1934 C   0  0  1  0  0  0  0  0  0  0  0  0
    4.8237   -4.5469   -0.0289 C   0  0  0  0  0  0  0  0  0  0  0  0
    6.5769   -2.4147    0.9615 C   0  0  0  0  0  0  0  0  0  0  0  0
    6.5196   -3.6210    1.6880 C   0  0  0  0  0  0  0  0  0  0  0  0
    4.5585   -1.3336   -0.1622 C   0  0  0  0  0  0  0  0  0  0  0  0
    7.3633   -1.3493    1.4408 C   0  0  0  0  0  0  0  0  0  0  0  0
    7.2960   -3.7393    2.8574 C   0  0  0  0  0  0  0  0  0  0  0  0
    3.7464   -1.3824    0.9831 C   0  0  0  0  0  0  0  0  0  0  0  0
    4.2126   -0.4295   -1.1797 C   0  0  0  0  0  0  0  0  0  0  0  0
    8.1077   -1.4824    2.6114 C   0  0  0  0  0  0  0  0  0  0  0  0
    8.0777   -2.6782    3.3165 C   0  0  0  0  0  0  0  0  0  0  0  0
    3.9409   -4.7762    2.9115 C   0  0  0  0  0  0  0  0  0  0  0  0
    2.6279   -0.5541    1.1200 C   0  0  0  0  0  0  0  0  0  0  0  0
    3.1011    0.4078   -1.0429 C   0  0  0  0  0  0  0  0  0  0  0  0
    2.3072    0.3496    0.1040 C   0  0  0  0  0  0  0  0  0  0  0  0
  1 18  1  0  0  0  0
  2 20  1  0  0  0  0
  3 17  1  0  0  0  0
  4  5  1  0  0  0  0
  4  8  1  0  0  0  0
  4 10  1  1  0  0  0
  5  7  1  0  0  0  0
  6  7  1  0  0  0  0
  6  9  1  0  0  0  0
  6  3  1  1  0  0  0
  8  9  1  0  0  0  0
  8 11  2  0  0  0  0
  9 12  2  0  0  0  0
 10 13  2  0  0  0  0
 10 14  1  0  0  0  0
 11 15  1  0  0  0  0
 12 16  1  0  0  0  0
 13 18  1  0  0  0  0
 14 19  2  0  0  0  0
 15 16  2  0  0  0  0
 18 20  2  0  0  0  0
 19 20  1  0  0  0  0
M  END
