1105
 OpenBabel10141417503D

 19 20  0  0  1  0  0  0  0  0999 V2000
    9.0899    4.4990    3.3230 Cl  0  0  0  0  0  0  0  0  0  0  0  0
    5.7243    1.8677   -2.8314 N   0  0  0  0  0  0  0  0  0  0  0  0
    6.4291    0.5481   -0.6902 C   0  0  0  0  0  0  0  0  0  0  0  0
    4.9945    0.0410   -0.2420 C   0  0  0  0  0  0  0  0  0  0  0  0
    6.8797   -0.9386   -0.3342 C   0  0  0  0  0  0  0  0  0  0  0  0
    6.5756    0.8139   -2.2428 C   0  0  3  0  0  0  0  0  0  0  0  0
    5.6726   -1.0359    0.6087 C   0  0  0  0  0  0  0  0  0  0  0  0
    7.1378    1.6781    0.2970 C   0  0  0  0  0  0  0  0  0  0  0  0
    8.0704    0.9736   -2.6428 C   0  0  0  0  0  0  0  0  0  0  0  0
    8.4425    0.8211   -4.1397 C   0  0  0  0  0  0  0  0  0  0  0  0
    6.3926    2.6082    1.0562 C   0  0  0  0  0  0  0  0  0  0  0  0
    8.5367    1.7082    0.5185 C   0  0  0  0  0  0  0  0  0  0  0  0
    5.8385    3.2050   -2.2776 C   0  0  0  0  0  0  0  0  0  0  0  0
    4.3315    1.4972   -3.0471 C   0  0  0  0  0  0  0  0  0  0  0  0
    7.8123    1.8684   -5.0575 C   0  0  0  0  0  0  0  0  0  0  0  0
    9.9704    0.8887   -4.2778 C   0  0  0  0  0  0  0  0  0  0  0  0
    6.9829    3.4886    1.9678 C   0  0  0  0  0  0  0  0  0  0  0  0
    9.1414    2.5795    1.4293 C   0  0  0  0  0  0  0  0  0  0  0  0
    8.3604    3.4628    2.1625 C   0  0  0  0  0  0  0  0  0  0  0  0
  1 19  1  0  0  0  0
  2  6  1  0  0  0  0
  2 13  1  0  0  0  0
  2 14  1  0  0  0  0
  3  4  1  0  0  0  0
  3  5  1  0  0  0  0
  3  6  1  0  0  0  0
  3  8  1  0  0  0  0
  4  7  1  0  0  0  0
  5  7  1  0  0  0  0
  6  9  1  0  0  0  0
  8 11  2  0  0  0  0
  8 12  1  0  0  0  0
  9 10  1  0  0  0  0
 10 15  1  0  0  0  0
 10 16  1  0  0  0  0
 11 17  1  0  0  0  0
 12 18  2  0  0  0  0
 17 19  2  0  0  0  0
 18 19  1  0  0  0  0
M  END
