1261
 OpenBabel10141417483D

 28 30  0  0  1  0  0  0  0  0999 V2000
    7.7419    5.4738   10.2631 F   0  0  0  0  0  0  0  0  0  0  0  0
    8.3838    6.9935    8.8499 F   0  0  0  0  0  0  0  0  0  0  0  0
    9.8625    5.8540    9.9863 F   0  0  0  0  0  0  0  0  0  0  0  0
    0.0454   -1.0920    5.8305 F   0  0  0  0  0  0  0  0  0  0  0  0
   -0.5497    2.5376    1.8122 F   0  0  0  0  0  0  0  0  0  0  0  0
   -2.4863    0.6588    2.2746 F   0  0  0  0  0  0  0  0  0  0  0  0
    5.0551    1.8249    5.1567 O   0  0  0  0  0  0  0  0  0  0  0  0
    6.1557    1.7787    7.1701 N   0  0  0  0  0  0  0  0  0  0  0  0
    7.9125    3.6342    8.1665 N   0  0  0  0  0  0  0  0  0  0  0  0
    9.2131    3.6248    6.4131 N   0  0  0  0  0  0  0  0  0  0  0  0
    1.2941    2.4010    7.1596 N   0  0  0  0  0  0  0  0  0  0  0  0
    9.5311    4.7145    7.1908 N   0  0  0  0  0  0  0  0  0  0  0  0
    6.2008    1.9030    8.6275 C   0  0  0  0  0  0  0  0  0  0  0  0
    6.8384    3.2303    9.0515 C   0  0  0  0  0  0  0  0  0  0  0  0
    7.4801    1.7790    6.5297 C   0  0  0  0  0  0  0  0  0  0  0  0
    8.2156    2.9940    6.9906 C   0  0  0  0  0  0  0  0  0  0  0  0
    3.6914    2.0404    7.1288 C   0  0  0  0  0  0  0  0  0  0  0  0
    2.4251    2.0865    6.2551 C   0  0  1  0  0  0  0  0  0  0  0  0
    5.0109    1.8682    6.3770 C   0  0  0  0  0  0  0  0  0  0  0  0
    2.1733    0.7669    5.4822 C   0  0  0  0  0  0  0  0  0  0  0  0
    8.7280    4.7336    8.2418 C   0  0  0  0  0  0  0  0  0  0  0  0
    0.9184    0.7625    4.6324 C   0  0  0  0  0  0  0  0  0  0  0  0
    8.6842    5.7559    9.3197 C   0  0  0  0  0  0  0  0  0  0  0  0
   -0.0871   -0.1920    4.8460 C   0  0  0  0  0  0  0  0  0  0  0  0
    0.7467    1.6902    3.5925 C   0  0  0  0  0  0  0  0  0  0  0  0
   -0.4011    1.6475    2.8024 C   0  0  0  0  0  0  0  0  0  0  0  0
   -1.2372   -0.2306    4.0621 C   0  0  0  0  0  0  0  0  0  0  0  0
   -1.3846    0.6932    3.0367 C   0  0  0  0  0  0  0  0  0  0  0  0
  1 23  1  0  0  0  0
  2 23  1  0  0  0  0
  3 23  1  0  0  0  0
  4 24  1  0  0  0  0
  5 26  1  0  0  0  0
  6 28  1  0  0  0  0
  7 19  2  0  0  0  0
  8 13  1  0  0  0  0
  8 15  1  0  0  0  0
  8 19  1  0  0  0  0
  9 14  1  0  0  0  0
  9 16  1  0  0  0  0
  9 21  1  0  0  0  0
 10 12  1  0  0  0  0
 10 16  2  0  0  0  0
 12 21  2  0  0  0  0
 13 14  1  0  0  0  0
 15 16  1  0  0  0  0
 17 19  1  0  0  0  0
 18 20  1  1  0  0  0
 18 17  1  0  0  0  0
 18 11  1  0  0  0  0
 20 22  1  0  0  0  0
 21 23  1  0  0  0  0
 22 24  1  0  0  0  0
 22 25  2  0  0  0  0
 24 27  2  0  0  0  0
 25 26  1  0  0  0  0
 26 28  2  0  0  0  0
 27 28  1  0  0  0  0
M  END
