216235
 OpenBabel10141417503D

 29 32  0  0  0  0  0  0  0  0999 V2000
    8.5518   -5.2014   -2.9094 Cl  0  0  0  0  0  0  0  0  0  0  0  0
    5.2919   -4.8998   -0.5651 S   0  0  0  0  0  0  0  0  0  0  0  0
    1.8412   -7.3170    0.0285 S   0  0  0  0  0  0  0  0  0  0  0  0
   -1.7556   -1.9196   -4.1270 O   0  0  0  0  0  0  0  0  0  0  0  0
   -1.8308    0.0901   -2.7945 O   0  0  0  0  0  0  0  0  0  0  0  0
    2.6143   -3.8421   -1.5447 O   0  0  0  0  0  0  0  0  0  0  0  0
    4.9895   -3.8239    0.3421 O   0  0  0  0  0  0  0  0  0  0  0  0
    5.2823   -4.8042   -2.0120 O   0  0  0  0  0  0  0  0  0  0  0  0
    8.1745   -3.6823    0.6448 O   0  0  0  0  0  0  0  0  0  0  0  0
    6.8089   -5.5900   -0.1624 N   0  0  0  0  0  0  0  0  0  0  0  0
    9.1791   -2.8573    0.1555 N   0  0  0  0  0  0  0  0  0  0  0  0
   -0.0931   -3.2595   -1.1178 C   0  0  0  0  0  0  0  0  0  0  0  0
    0.5252   -4.5445   -0.5868 C   0  0  0  0  0  0  0  0  0  0  0  0
   -0.1098   -2.0609   -0.3483 C   0  0  0  0  0  0  0  0  0  0  0  0
    4.0728   -6.0962   -0.2315 C   0  0  0  0  0  0  0  0  0  0  0  0
    2.7092   -5.8954   -0.3990 C   0  0  0  0  0  0  0  0  0  0  0  0
   -0.6341   -3.2551   -2.4209 C   0  0  0  0  0  0  0  0  0  0  0  0
    2.0164   -4.7025   -0.9007 C   0  0  0  0  0  0  0  0  0  0  0  0
   -1.1910   -2.0878   -2.9006 C   0  0  0  0  0  0  0  0  0  0  0  0
   -1.2317   -0.9438   -2.1452 C   0  0  0  0  0  0  0  0  0  0  0  0
   -0.7065   -0.8987   -0.8729 C   0  0  0  0  0  0  0  0  0  0  0  0
    0.4805   -1.9967    1.0349 C   0  0  0  0  0  0  0  0  0  0  0  0
    4.3882   -7.4021    0.2572 C   0  0  0  0  0  0  0  0  0  0  0  0
   -2.1497   -0.5332   -4.0552 C   0  0  0  0  0  0  0  0  0  0  0  0
    3.2623   -8.1727    0.4251 C   0  0  0  0  0  0  0  0  0  0  0  0
    7.8207   -4.5837   -0.3115 C   0  0  0  0  0  0  0  0  0  0  0  0
    8.5894   -4.3707   -1.4318 C   0  0  0  0  0  0  0  0  0  0  0  0
    9.3881   -3.2520   -1.1084 C   0  0  0  0  0  0  0  0  0  0  0  0
   10.3454   -2.5268   -1.9749 C   0  0  0  0  0  0  0  0  0  0  0  0
  1 27  1  0  0  0  0
  2  7  2  0  0  0  0
  2  8  2  0  0  0  0
  2 10  1  0  0  0  0
  2 15  1  0  0  0  0
  3 16  1  0  0  0  0
  3 25  1  0  0  0  0
  4 19  1  0  0  0  0
  4 24  1  0  0  0  0
  5 20  1  0  0  0  0
  5 24  1  0  0  0  0
  6 18  2  0  0  0  0
  9 11  1  0  0  0  0
  9 26  1  0  0  0  0
 10 26  1  0  0  0  0
 11 28  2  0  0  0  0
 12 13  1  0  0  0  0
 12 14  1  0  0  0  0
 12 17  2  0  0  0  0
 13 18  1  0  0  0  0
 14 21  2  0  0  0  0
 14 22  1  0  0  0  0
 15 16  2  0  0  0  0
 15 23  1  0  0  0  0
 16 18  1  0  0  0  0
 17 19  1  0  0  0  0
 19 20  2  0  0  0  0
 20 21  1  0  0  0  0
 23 25  2  0  0  0  0
 26 27  2  0  0  0  0
 27 28  1  0  0  0  0
 28 29  1  0  0  0  0
M  END
