1390
 OpenBabel10141417533D

  5  3  0  0  0  0  0  0  0  0999 V2000
    2.7533   -2.1429   -0.4193 Na  0  3  0  0  0 15  0  0  0  0  0  0
    1.2188    1.1544    0.4247 O   0  0  0  0  0  0  0  0  0  0  0  0
    1.8075   -0.2746   -1.1089 O   0  5  0  0  0  0  0  0  0  0  0  0
    2.6892   -0.4656    0.9043 O   0  0  0  0  0  0  0  0  0  0  0  0
    1.9695    0.1440    0.0644 C   0  0  0  0  0  0  0  0  0  0  0  0
  2  5  1  0  0  0  0
  3  5  1  0  0  0  0
  4  5  2  0  0  0  0
M  CHG  2   1   1   3  -1
M  END
