1591
 OpenBabel10141417523D

 35 38  0  0  1  0  0  0  0  0999 V2000
   -0.6338    3.2732   -0.1565 O   0  0  0  0  0  0  0  0  0  0  0  0
   -0.1830    2.0093   -1.9976 O   0  0  0  0  0  0  0  0  0  0  0  0
    2.1499   -1.2283   -0.3080 O   0  0  0  0  0  0  0  0  0  0  0  0
    7.1078    1.5582    1.5085 O   0  0  0  0  0  0  0  0  0  0  0  0
    4.0143   -1.2158   -1.5453 O   0  0  0  0  0  0  0  0  0  0  0  0
    5.0192    2.2766    1.9465 O   0  0  0  0  0  0  0  0  0  0  0  0
   -2.1662    2.2642    2.8110 N   0  0  3  0  0  0  0  0  0  0  0  0
    0.5149    4.2282   -1.9024 N   0  0  0  0  0  0  0  0  0  0  0  0
   -2.1601    1.3662    0.3642 C   0  0  3  0  0  0  0  0  0  0  0  0
   -0.8341    2.0986    0.6600 C   0  0  2  0  0  0  0  0  0  0  0  0
   -2.2880    0.2187    1.3865 C   0  0  0  0  0  0  0  0  0  0  0  0
   -3.3358    2.3275    0.6073 C   0  0  0  0  0  0  0  0  0  0  0  0
   -0.8617    2.5424    2.1497 C   0  0  0  0  0  0  0  0  0  0  0  0
   -2.4103    0.8055    2.8033 C   0  0  0  0  0  0  0  0  0  0  0  0
   -3.2312    2.9216    2.0213 C   0  0  0  0  0  0  0  0  0  0  0  0
   -0.1297    3.0927   -1.4067 C   0  0  0  0  0  0  0  0  0  0  0  0
    1.4830    4.0234   -3.0018 C   0  0  2  0  0  0  0  0  0  0  0  0
    0.8153    5.3339   -1.0025 C   0  0  0  0  0  0  0  0  0  0  0  0
    2.8858    3.8609   -2.3954 C   0  0  0  0  0  0  0  0  0  0  0  0
    2.1660    5.1395   -0.3031 C   0  0  0  0  0  0  0  0  0  0  0  0
    3.2064    4.4325   -1.1432 C   0  0  0  0  0  0  0  0  0  0  0  0
    1.4083    5.0983   -4.1029 C   0  0  0  0  0  0  0  0  0  0  0  0
    3.8712    3.1359   -3.0865 C   0  0  0  0  0  0  0  0  0  0  0  0
    4.4961    4.2687   -0.6171 C   0  0  0  0  0  0  0  0  0  0  0  0
    0.5733    4.9245   -5.2249 C   0  0  0  0  0  0  0  0  0  0  0  0
    2.1628    6.2843   -4.0383 C   0  0  0  0  0  0  0  0  0  0  0  0
    5.1469    2.9721   -2.5445 C   0  0  0  0  0  0  0  0  0  0  0  0
    5.4600    3.5432   -1.3150 C   0  0  0  0  0  0  0  0  0  0  0  0
    0.4569    5.9242   -6.2035 C   0  0  0  0  0  0  0  0  0  0  0  0
    2.0453    7.2805   -5.0130 C   0  0  0  0  0  0  0  0  0  0  0  0
    1.1783    7.1098   -6.0863 C   0  0  0  0  0  0  0  0  0  0  0  0
    3.8029    0.3470    0.3114 C   0  0  0  0  0  0  0  0  0  0  0  0
    5.3212    0.3906    0.4455 C   0  0  0  0  0  0  0  0  0  0  0  0
    3.3784   -0.7608   -0.6131 C   0  0  0  0  0  0  0  0  0  0  0  0
    5.7620    1.4971    1.3715 C   0  0  0  0  0  0  0  0  0  0  0  0
  1 16  1  0  0  0  0
  2 16  2  0  0  0  0
  3 34  1  0  0  0  0
  4 35  1  0  0  0  0
  5 34  2  0  0  0  0
  6 35  2  0  0  0  0
  7 13  1  0  0  0  0
  7 14  1  0  0  0  0
  7 15  1  0  0  0  0
  8 16  1  0  0  0  0
  8 17  1  0  0  0  0
  8 18  1  0  0  0  0
  9 10  1  0  0  0  0
  9 11  1  0  0  0  0
  9 12  1  0  0  0  0
 10 13  1  0  0  0  0
 10  1  1  6  0  0  0
 11 14  1  0  0  0  0
 12 15  1  0  0  0  0
 17 19  1  0  0  0  0
 17 22  1  6  0  0  0
 18 20  1  0  0  0  0
 19 21  1  0  0  0  0
 19 23  2  0  0  0  0
 20 21  1  0  0  0  0
 21 24  2  0  0  0  0
 22 25  2  0  0  0  0
 22 26  1  0  0  0  0
 23 27  1  0  0  0  0
 24 28  1  0  0  0  0
 25 29  1  0  0  0  0
 26 30  2  0  0  0  0
 27 28  2  0  0  0  0
 29 31  2  0  0  0  0
 30 31  1  0  0  0  0
 32 33  1  0  0  0  0
 32 34  1  0  0  0  0
 33 35  1  0  0  0  0
M  END
