919
 OpenBabel10141417493D

 23 25  0  0  1  0  0  0  0  0999 V2000
   -1.2638   -1.7906    1.1559 O   0  0  0  0  0  0  0  0  0  0  0  0
   -1.3776    0.6637   -0.3558 O   0  0  0  0  0  0  0  0  0  0  0  0
   -3.6503    0.2523   -0.8499 O   0  0  0  0  0  0  0  0  0  0  0  0
    1.6846    1.3753    1.5465 O   0  0  0  0  0  0  0  0  0  0  0  0
    3.0232   -1.4511   -1.3456 O   0  0  0  0  0  0  0  0  0  0  0  0
   -2.4032   -2.3337   -0.7907 O   0  0  0  0  0  0  0  0  0  0  0  0
   -3.8499   -2.1600    2.2426 O   0  0  0  0  0  0  0  0  0  0  0  0
   -0.0817   -1.5457   -1.6936 N   0  0  0  0  0  0  0  0  0  0  0  0
    1.3284    0.9968   -2.1158 N   0  0  0  0  0  0  0  0  0  0  0  0
   -0.0770   -1.0567    0.7907 C   0  0  1  0  0  0  0  0  0  0  0  0
   -0.3589    0.4510    0.6386 C   0  0  1  0  0  0  0  0  0  0  0  0
    0.7103   -1.6357   -0.4345 C   0  0  2  0  0  0  0  0  0  0  0  0
    0.9198    1.2638    0.3338 C   0  0  2  0  0  0  0  0  0  0  0  0
    1.8566    0.6700   -0.7643 C   0  0  1  0  0  0  0  0  0  0  0  0
    2.0610   -0.8525   -0.4731 C   0  0  2  0  0  0  0  0  0  0  0  0
   -2.4065   -1.5026    0.3630 C   0  0  2  0  0  0  0  0  0  0  0  0
   -2.5921    0.0261    0.0880 C   0  0  2  0  0  0  0  0  0  0  0  0
   -3.7430   -1.8067    1.0609 C   0  0  0  0  0  0  0  0  0  0  0  0
   -4.9421   -0.1492   -0.3654 C   0  0  1  0  0  0  0  0  0  0  0  0
   -4.9673   -1.5707    0.2037 C   0  0  0  0  0  0  0  0  0  0  0  0
    0.5131   -2.2578   -2.8216 C   0  0  0  0  0  0  0  0  0  0  0  0
    2.3609    0.9210   -3.1499 C   0  0  0  0  0  0  0  0  0  0  0  0
   -5.4931    0.8852    0.6167 C   0  0  0  0  0  0  0  0  0  0  0  0
  1 16  1  0  0  0  0
  3 17  1  0  0  0  0
  3 19  1  0  0  0  0
  7 18  2  0  0  0  0
  8 21  1  0  0  0  0
  9 22  1  0  0  0  0
 10  1  1  1  0  0  0
 10 11  1  0  0  0  0
 10 12  1  0  0  0  0
 11  2  1  6  0  0  0
 11 13  1  0  0  0  0
 12 15  1  0  0  0  0
 12  8  1  6  0  0  0
 13 14  1  0  0  0  0
 13  4  1  1  0  0  0
 14  9  1  6  0  0  0
 14 15  1  0  0  0  0
 15  5  1  6  0  0  0
 16  6  1  6  0  0  0
 16 17  1  0  0  0  0
 16 18  1  0  0  0  0
 17  2  1  1  0  0  0
 18 20  1  0  0  0  0
 19 20  1  0  0  0  0
 19 23  1  1  0  0  0
M  END
