127
 OpenBabel10141417483D

 14 13  0  0  0  0  0  0  0  0999 V2000
    2.2121    1.4560   -1.0438 N   0  0  0  0  0  0  0  0  0  0  0  0
    1.4394   -0.1290   -3.3245 N   0  0  0  0  0  0  0  0  0  0  0  0
    4.0854    4.3554    1.7809 N   0  0  0  0  0  0  0  0  0  0  0  0
   -0.2743    0.3159   -7.2892 N   0  0  0  0  0  0  0  0  0  0  0  0
   -0.2601    1.8026   -1.1333 C   0  0  0  0  0  0  0  0  0  0  0  0
   -0.6383    1.1300   -2.4485 C   0  0  0  0  0  0  0  0  0  0  0  0
    1.1324    2.4397   -1.0005 C   0  0  0  0  0  0  0  0  0  0  0  0
    0.1011   -0.1778   -2.7680 C   0  0  0  0  0  0  0  0  0  0  0  0
    3.6007    1.9282   -1.1398 C   0  0  0  0  0  0  0  0  0  0  0  0
    1.8243    0.9863   -4.1755 C   0  0  0  0  0  0  0  0  0  0  0  0
    4.1948    2.4860    0.1531 C   0  0  0  0  0  0  0  0  0  0  0  0
    1.5049    0.7784   -5.6463 C   0  0  0  0  0  0  0  0  0  0  0  0
    3.4916    3.7499    0.6065 C   0  0  0  0  0  0  0  0  0  0  0  0
    0.0196    0.5668   -5.8929 C   0  0  0  0  0  0  0  0  0  0  0  0
  1  7  1  0  0  0  0
  1  9  1  0  0  0  0
  2  8  1  0  0  0  0
  2 10  1  0  0  0  0
  3 13  1  0  0  0  0
  4 14  1  0  0  0  0
  5  6  1  0  0  0  0
  5  7  1  0  0  0  0
  6  8  1  0  0  0  0
  9 11  1  0  0  0  0
 10 12  1  0  0  0  0
 11 13  1  0  0  0  0
 12 14  1  0  0  0  0
M  END
