Structure #1
 OpenBabel10141417483D

 24 28  0  0  0  0  0  0  0  0999 V2000
    0.9615    0.9835    0.3866 C   0  0  0  0  0  0  0  0  0  0  0  0
    6.1037    1.6054   -2.9915 C   0  0  0  0  0  0  0  0  0  0  0  0
    6.9601    4.0760   -1.8639 C   0  0  0  0  0  0  0  0  0  0  0  0
    1.4702   -1.4804   -0.7014 C   0  0  0  0  0  0  0  0  0  0  0  0
    1.5824   -0.1895   -1.9705 C   0  0  0  0  0  0  0  0  0  0  0  0
    5.0433   -0.2120   -0.8467 C   0  0  0  0  0  0  0  0  0  0  0  0
    3.4426    3.3171   -2.6170 C   0  0  0  0  0  0  0  0  0  0  0  0
    5.7205    1.0883   -0.6306 C   0  0  0  0  0  0  0  0  0  0  0  0
    4.3933    4.3130   -1.8736 C   0  0  0  0  0  0  0  0  0  0  0  0
    3.4854   -1.7352    1.4338 C   0  0  0  0  0  0  0  0  0  0  0  0
    2.9610    1.2645    1.6099 C   0  0  0  0  0  0  0  0  0  0  0  0
    5.2005    1.3317    2.7702 C   0  0  0  0  0  0  0  0  0  0  0  0
    4.1137    0.6812    2.2354 C   0  0  0  0  0  0  0  0  0  0  0  0
    2.1426   -1.0885    0.8006 C   0  0  3  0  0  0  0  0  0  0  0  0
    3.0109    0.5791   -2.0849 C   0  0  3  0  0  0  0  0  0  0  0  0
    3.5269   -0.0551   -0.8342 C   0  0  3  0  0  0  0  0  0  0  0  0
    3.6492    2.0293   -1.8393 C   0  0  3  0  0  0  0  0  0  0  0  0
    4.4147   -0.6799    2.1354 C   0  0  0  0  0  0  0  0  0  0  0  0
    2.4468    0.3600    0.4850 C   0  0  3  0  0  0  0  0  0  0  0  0
    5.2913    2.0413   -1.7349 C   0  0  3  0  0  0  0  0  0  0  0  0
    5.6189    3.5251   -1.3593 C   0  0  3  0  0  0  0  0  0  0  0  0
    6.1455    0.3792    2.7807 N   0  0  0  0  0  0  0  0  0  0  0  0
    5.7158   -0.8828    2.4805 N   0  0  0  0  0  0  0  0  0  0  0  0
    5.6558    3.6715    0.0729 O   0  0  0  0  0  0  0  0  0  0  0  0
  1 19  1  0  0  0  0
  2 20  1  0  0  0  0
  3 21  1  0  0  0  0
  4  5  1  0  0  0  0
  4 14  1  0  0  0  0
  5 15  1  0  0  0  0
  6  8  1  0  0  0  0
  6 16  1  0  0  0  0
  7  9  1  0  0  0  0
  7 17  1  0  0  0  0
  8 20  1  0  0  0  0
  9 21  1  0  0  0  0
 10 14  1  0  0  0  0
 10 18  1  0  0  0  0
 11 13  1  0  0  0  0
 11 19  1  0  0  0  0
 12 13  2  0  0  0  0
 12 22  1  0  0  0  0
 13 18  1  0  0  0  0
 14 19  1  0  0  0  0
 15 16  1  0  0  0  0
 15 17  1  0  0  0  0
 16 19  1  0  0  0  0
 17 20  1  0  0  0  0
 18 23  2  0  0  0  0
 20 21  1  0  0  0  0
 21 24  1  0  0  0  0
 22 23  1  0  0  0  0
M  END
