649
 OpenBabel10141417483D

 16 17  0  0  1  0  0  0  0  0999 V2000
   -0.3481   -1.0188    1.2773 O   0  0  0  0  0  0  0  0  0  0  0  0
    0.9116   -3.3214    0.1476 O   0  0  0  0  0  0  0  0  0  0  0  0
    0.5720    2.3238    3.0203 O   0  0  0  0  0  0  0  0  0  0  0  0
    4.5539    0.7700    4.4822 O   0  0  0  0  0  0  0  0  0  0  0  0
    1.3929    0.3899    2.0443 N   0  0  0  0  0  0  0  0  0  0  0  0
    2.5182    1.4797    3.7729 N   0  0  0  0  0  0  0  0  0  0  0  0
    0.2438    0.2935    1.1560 C   0  0  1  0  0  0  0  0  0  0  0  0
   -0.6882   -1.4706   -0.0554 C   0  0  1  0  0  0  0  0  0  0  0  0
    0.6591    0.3907   -0.2716 C   0  0  0  0  0  0  0  0  0  0  0  0
    0.1439   -0.6282   -0.9611 C   0  0  0  0  0  0  0  0  0  0  0  0
   -0.4429   -2.9815   -0.1522 C   0  0  0  0  0  0  0  0  0  0  0  0
    2.4211   -0.5320    1.9761 C   0  0  0  0  0  0  0  0  0  0  0  0
    1.4266    1.4452    2.9429 C   0  0  0  0  0  0  0  0  0  0  0  0
    3.5020   -0.4753    2.7621 C   0  0  0  0  0  0  0  0  0  0  0  0
    3.5817    0.6264    3.7453 C   0  0  0  0  0  0  0  0  0  0  0  0
    4.6371   -1.4417    2.6946 C   0  0  0  0  0  0  0  0  0  0  0  0
  1  7  1  0  0  0  0
  1  8  1  0  0  0  0
  2 11  1  0  0  0  0
  3 13  2  0  0  0  0
  4 15  2  0  0  0  0
  5 12  1  0  0  0  0
  5 13  1  0  0  0  0
  6 13  1  0  0  0  0
  6 15  1  0  0  0  0
  7  5  1  1  0  0  0
  7  9  1  0  0  0  0
  8 10  1  0  0  0  0
  8 11  1  1  0  0  0
  9 10  2  0  0  0  0
 12 14  2  0  0  0  0
 14 15  1  0  0  0  0
 14 16  1  0  0  0  0
M  END
