1423
 OpenBabel10141417483D

 17 17  0  0  1  0  0  0  0  0999 V2000
   -0.0069    0.4774   -1.0235 S   0  0  0  0  0  0  0  0  0  0  0  0
    4.0160   -1.0809   -0.4130 S   0  0  0  0  0  0  0  0  0  0  0  0
    1.3869    3.5384    0.7158 O   0  0  0  0  0  0  0  0  0  0  0  0
    2.3913    1.1208   -1.7338 O   0  0  0  0  0  0  0  0  0  0  0  0
    0.1491    4.1187   -3.7623 O   0  0  0  0  0  0  0  0  0  0  0  0
    1.0901    6.1418   -3.6964 O   0  0  0  0  0  0  0  0  0  0  0  0
    0.1118    3.7106   -1.1691 N   0  0  0  0  0  0  0  0  0  0  0  0
   -0.1510    1.7401    0.2898 C   0  0  3  0  0  0  0  0  0  0  0  0
    0.5516    3.0545   -0.0455 C   0  0  0  0  0  0  0  0  0  0  0  0
   -1.6326    2.0233    0.5612 C   0  0  0  0  0  0  0  0  0  0  0  0
    0.6634    4.9941   -1.5784 C   0  0  0  0  0  0  0  0  0  0  0  0
    1.7520    0.2929   -1.1196 C   0  0  0  0  0  0  0  0  0  0  0  0
    2.2977   -0.9151   -0.4778 C   0  0  0  0  0  0  0  0  0  0  0  0
    1.6932   -2.0096    0.1111 C   0  0  0  0  0  0  0  0  0  0  0  0
    0.6792    5.1634   -3.0889 C   0  0  0  0  0  0  0  0  0  0  0  0
    2.6266   -2.8995    0.7300 C   0  0  0  0  0  0  0  0  0  0  0  0
    3.9218   -2.4595    0.5922 C   0  0  0  0  0  0  0  0  0  0  0  0
  1  8  1  0  0  0  0
  1 12  1  0  0  0  0
  2 13  1  0  0  0  0
  2 17  1  0  0  0  0
  3  9  2  0  0  0  0
  4 12  2  0  0  0  0
  5 15  1  0  0  0  0
  6 15  2  0  0  0  0
  7  9  1  0  0  0  0
  7 11  1  0  0  0  0
  8  9  1  0  0  0  0
  8 10  1  0  0  0  0
 11 15  1  0  0  0  0
 12 13  1  0  0  0  0
 13 14  2  0  0  0  0
 14 16  1  0  0  0  0
 16 17  2  0  0  0  0
M  END
