139
 OpenBabel10141417503D

  8  7  0  0  0  0  0  0  0  0999 V2000
    2.0780   -0.7745    0.8592 O   0  0  0  0  0  0  0  0  0  0  0  0
    6.3519   -1.4889   -0.2171 O   0  0  0  0  0  0  0  0  0  0  0  0
    2.2987    1.4645    0.6716 O   0  0  0  0  0  0  0  0  0  0  0  0
    4.2203   -2.2458   -0.0961 O   0  0  0  0  0  0  0  0  0  0  0  0
    3.1168    0.0859   -1.1207 C   0  0  0  0  0  0  0  0  0  0  0  0
    4.6276   -0.0408   -0.9843 C   0  0  0  0  0  0  0  0  0  0  0  0
    2.4582    0.3442    0.2085 C   0  0  0  0  0  0  0  0  0  0  0  0
    5.0191   -1.3651   -0.3884 C   0  0  0  0  0  0  0  0  0  0  0  0
  1  7  1  0  0  0  0
  2  8  1  0  0  0  0
  3  7  2  0  0  0  0
  4  8  2  0  0  0  0
  5  6  1  0  0  0  0
  5  7  1  0  0  0  0
  6  8  1  0  0  0  0
M  END
