566
 OpenBabel10141417473D

 10  9  0  0  1  0  0  0  0  0999 V2000
    0.8873   -0.5026    0.3046 S   0  0  0  0  0  0  0  0  0  0  0  0
    3.0166   -1.0243   -2.3723 S   0  0  0  0  0  0  0  0  0  0  0  0
    3.6823    2.3379    0.6504 O   0  0  0  0  0  0  0  0  0  0  0  0
    2.2403    2.8011   -2.0088 O   0  0  0  0  0  0  0  0  0  0  0  0
    1.6135    2.2112    1.4447 O   0  0  0  0  0  0  0  0  0  0  0  0
    0.9320    1.2109   -2.8399 O   0  0  0  0  0  0  0  0  0  0  0  0
    2.4832    0.3719    0.0242 C   0  0  3  0  0  0  0  0  0  0  0  0
    2.8633    0.5669   -1.4497 C   0  0  3  0  0  0  0  0  0  0  0  0
    2.4913    1.7082    0.7672 C   0  0  0  0  0  0  0  0  0  0  0  0
    1.9095    1.5026   -2.1707 C   0  0  0  0  0  0  0  0  0  0  0  0
  1  7  1  0  0  0  0
  2  8  1  0  0  0  0
  3  9  1  0  0  0  0
  4 10  1  0  0  0  0
  5  9  2  0  0  0  0
  6 10  2  0  0  0  0
  7  8  1  0  0  0  0
  7  9  1  0  0  0  0
  8 10  1  0  0  0  0
M  END
