202
 OpenBabel10141418003D

 20 19  0  0  0  0  0  0  0  0999 V2000
    3.2535    2.3272   -3.6648 O   0  0  0  0  0  0  0  0  0  0  0  0
    7.2959    3.9797   -0.2689 O   0  0  0  0  0  0  0  0  0  0  0  0
    3.8036    0.6784   -2.1877 O   0  0  0  0  0  0  0  0  0  0  0  0
    5.7100    5.4717   -0.9580 O   0  0  0  0  0  0  0  0  0  0  0  0
    0.9797   -0.3847   -5.2347 N   0  3  0  0  0  0  0  0  0  0  0  0
    9.0124    7.2895    0.7609 N   0  3  0  0  0  0  0  0  0  0  0  0
    1.4841    0.7125   -4.2670 C   0  0  0  0  0  0  0  0  0  0  0  0
    8.4142    6.1780   -0.1195 C   0  0  0  0  0  0  0  0  0  0  0  0
   -0.3962   -0.8800   -4.7556 C   0  0  0  0  0  0  0  0  0  0  0  0
    0.7877    0.1549   -6.6494 C   0  0  0  0  0  0  0  0  0  0  0  0
    1.9148   -1.5936   -5.2261 C   0  0  0  0  0  0  0  0  0  0  0  0
    9.5349    8.3986   -0.1640 C   0  0  0  0  0  0  0  0  0  0  0  0
    7.9610    7.9281    1.6642 C   0  0  0  0  0  0  0  0  0  0  0  0
   10.1754    6.7646    1.5883 C   0  0  0  0  0  0  0  0  0  0  0  0
    2.8762    1.2965   -4.6012 C   0  0  0  0  0  0  0  0  0  0  0  0
    7.8057    4.9797    0.6426 C   0  0  0  0  0  0  0  0  0  0  0  0
    4.2501    2.9790   -1.6144 C   0  0  0  0  0  0  0  0  0  0  0  0
    5.7210    3.2483   -1.8846 C   0  0  0  0  0  0  0  0  0  0  0  0
    3.7499    1.8647   -2.4820 C   0  0  0  0  0  0  0  0  0  0  0  0
    6.2144    4.3455   -0.9990 C   0  0  0  0  0  0  0  0  0  0  0  0
  1 15  1  0  0  0  0
  1 19  1  0  0  0  0
  2 16  1  0  0  0  0
  2 20  1  0  0  0  0
  3 19  2  0  0  0  0
  4 20  2  0  0  0  0
  5  7  1  0  0  0  0
  5  9  1  0  0  0  0
  5 10  1  0  0  0  0
  5 11  1  0  0  0  0
  6  8  1  0  0  0  0
  6 12  1  0  0  0  0
  6 13  1  0  0  0  0
  6 14  1  0  0  0  0
  7 15  1  0  0  0  0
  8 16  1  0  0  0  0
 17 18  1  0  0  0  0
 17 19  1  0  0  0  0
 18 20  1  0  0  0  0
M  CHG  2   5   1   6   1
M  END
