5335
 OpenBabel10141417493D

 22 24  0  0  0  0  0  0  0  0999 V2000
    0.3330    1.3743   -1.3701 S   0  0  0  0  0  0  0  0  0  0  0  0
    0.3943    1.2644   -2.8079 O   0  0  0  0  0  0  0  0  0  0  0  0
   -0.6146    0.5997   -0.5913 O   0  0  0  0  0  0  0  0  0  0  0  0
   -1.3425    3.3432    1.0441 N   0  0  0  0  0  0  0  0  0  0  0  0
    0.1600    3.0550   -1.0281 N   0  0  0  0  0  0  0  0  0  0  0  0
   -2.6702    3.5633    1.2718 N   0  0  0  0  0  0  0  0  0  0  0  0
    5.7644    0.1406    0.7398 N   0  0  0  0  0  0  0  0  0  0  0  0
   -1.0678    3.3631   -0.3265 C   0  0  0  0  0  0  0  0  0  0  0  0
    1.9533    1.0614   -0.7325 C   0  0  0  0  0  0  0  0  0  0  0  0
   -0.4439    3.2103    2.1411 C   0  0  0  0  0  0  0  0  0  0  0  0
   -2.2460    3.6638   -0.9677 C   0  0  0  0  0  0  0  0  0  0  0  0
    3.0707    1.2439   -1.5507 C   0  0  0  0  0  0  0  0  0  0  0  0
    2.0945    0.5933    0.5730 C   0  0  0  0  0  0  0  0  0  0  0  0
   -3.1940    3.7592    0.0617 C   0  0  0  0  0  0  0  0  0  0  0  0
    4.3382    0.9387   -1.0519 C   0  0  0  0  0  0  0  0  0  0  0  0
    3.3657    0.2902    1.0564 C   0  0  0  0  0  0  0  0  0  0  0  0
    0.9113    3.5251    1.9949 C   0  0  0  0  0  0  0  0  0  0  0  0
   -0.9183    2.7841    3.3934 C   0  0  0  0  0  0  0  0  0  0  0  0
    4.4861    0.3894    0.2255 C   0  0  0  0  0  0  0  0  0  0  0  0
    1.7876    3.3811    3.0745 C   0  0  0  0  0  0  0  0  0  0  0  0
   -0.0336    2.6321    4.4671 C   0  0  0  0  0  0  0  0  0  0  0  0
    1.3190    2.9260    4.3056 C   0  0  0  0  0  0  0  0  0  0  0  0
  1  2  2  0  0  0  0
  1  3  2  0  0  0  0
  1  5  1  0  0  0  0
  1  9  1  0  0  0  0
  4  6  1  0  0  0  0
  4  8  1  0  0  0  0
  4 10  1  0  0  0  0
  5  8  1  0  0  0  0
  6 14  2  0  0  0  0
  7 19  1  0  0  0  0
  8 11  2  0  0  0  0
  9 12  2  0  0  0  0
  9 13  1  0  0  0  0
 10 17  2  0  0  0  0
 10 18  1  0  0  0  0
 11 14  1  0  0  0  0
 12 15  1  0  0  0  0
 13 16  2  0  0  0  0
 15 19  2  0  0  0  0
 16 19  1  0  0  0  0
 17 20  1  0  0  0  0
 18 21  2  0  0  0  0
 20 22  2  0  0  0  0
 21 22  1  0  0  0  0
M  END
