576
 OpenBabel10141417513D

 17 18  0  0  0  0  0  0  0  0999 V2000
    1.7467    0.2256    0.2882 S   0  0  0  0  0  0  0  0  0  0  0  0
    0.7190    3.5956    0.6841 S   0  0  0  0  0  0  0  0  0  0  0  0
    1.4081   -1.0420   -0.3195 O   0  0  0  0  0  0  0  0  0  0  0  0
    1.2327    0.5966    1.5897 O   0  0  0  0  0  0  0  0  0  0  0  0
    1.4063    1.4030   -0.8747 N   0  0  0  0  0  0  0  0  0  0  0  0
   -0.7493    2.3418   -0.9894 N   0  0  0  0  0  0  0  0  0  0  0  0
    7.6972    0.4711    0.6329 N   0  0  0  0  0  0  0  0  0  0  0  0
   -1.5602    3.3168   -0.4436 N   0  0  0  0  0  0  0  0  0  0  0  0
    3.5167    0.3352    0.3581 C   0  0  0  0  0  0  0  0  0  0  0  0
    4.1214    1.1949    1.2772 C   0  0  0  0  0  0  0  0  0  0  0  0
    4.2916   -0.4861   -0.4618 C   0  0  0  0  0  0  0  0  0  0  0  0
    6.3072    0.4944    0.4777 C   0  0  0  0  0  0  0  0  0  0  0  0
    5.5156    1.2555    1.3443 C   0  0  0  0  0  0  0  0  0  0  0  0
    5.6839   -0.4138   -0.3843 C   0  0  0  0  0  0  0  0  0  0  0  0
    0.4363    2.3311   -0.4301 C   0  0  0  0  0  0  0  0  0  0  0  0
   -0.9239    4.0441    0.4519 C   0  0  0  0  0  0  0  0  0  0  0  0
   -1.5161    5.1834    1.1939 C   0  0  0  0  0  0  0  0  0  0  0  0
  1  3  2  0  0  0  0
  1  4  2  0  0  0  0
  1  5  1  0  0  0  0
  1  9  1  0  0  0  0
  2 15  1  0  0  0  0
  2 16  1  0  0  0  0
  5 15  1  0  0  0  0
  6  8  1  0  0  0  0
  6 15  2  0  0  0  0
  7 12  1  0  0  0  0
  8 16  2  0  0  0  0
  9 10  2  0  0  0  0
  9 11  1  0  0  0  0
 10 13  1  0  0  0  0
 11 14  2  0  0  0  0
 12 13  2  0  0  0  0
 12 14  1  0  0  0  0
 16 17  1  0  0  0  0
M  END
