
 OpenBabel10141417513D

 25 27  0  0  0  0  0  0  0  0999 V2000
   -0.6439   -0.8327   -0.5722 C   0  0  0  0  0  0  0  0  0  0  0  0
   -1.8064   -0.0294   -0.1667 C   0  0  0  0  0  0  0  0  0  0  0  0
   -1.4868    1.2843   -0.1807 C   0  0  0  0  0  0  0  0  0  0  0  0
   -0.0748    1.3940   -0.5939 C   0  0  0  0  0  0  0  0  0  0  0  0
    0.4499    0.1115   -0.8549 C   0  0  0  0  0  0  0  0  0  0  0  0
    0.7202    2.5226   -0.7421 C   0  0  0  0  0  0  0  0  0  0  0  0
    2.0358    2.3501   -1.1685 C   0  0  0  0  0  0  0  0  0  0  0  0
    2.5550    1.0857   -1.4544 C   0  0  0  0  0  0  0  0  0  0  0  0
    1.7572   -0.0489   -1.2970 C   0  0  0  0  0  0  0  0  0  0  0  0
   -0.6399   -2.1767   -0.6327 C   0  0  0  0  0  0  0  0  0  0  0  0
    0.4990   -3.0363   -0.9514 C   0  0  0  0  0  0  0  0  0  0  0  0
    1.3315   -3.4886    0.0772 C   0  0  0  0  0  0  0  0  0  0  0  0
    2.4326   -4.2992   -0.2135 C   0  0  0  0  0  0  0  0  0  0  0  0
    2.7082   -4.6686   -1.5348 C   0  0  0  0  0  0  0  0  0  0  0  0
    1.8762   -4.2072   -2.5624 C   0  0  0  0  0  0  0  0  0  0  0  0
    0.7700   -3.4031   -2.2722 C   0  0  0  0  0  0  0  0  0  0  0  0
    4.1598   -5.6689   -1.9420 S   0  0  3  0  0  0  0  0  0  0  0  0
    4.8142   -6.0064   -0.6345 O   0  0  0  0  0  0  0  0  0  0  0  0
    3.3007   -7.1558   -2.5166 C   0  0  0  0  0  0  0  0  0  0  0  0
   -2.3641    2.4652    0.0853 C   0  0  0  0  0  0  0  0  0  0  0  0
   -2.3765    2.8862    1.5401 C   0  0  0  0  0  0  0  0  0  0  0  0
   -3.1759    3.9624    1.7386 O   0  0  0  0  0  0  0  0  0  0  0  0
   -1.8056    2.3762    2.4830 O   0  0  0  0  0  0  0  0  0  0  0  0
    2.8247    3.4238   -1.3111 F   0  0  0  0  0  0  0  0  0  0  0  0
   -3.1106   -0.6446    0.2215 C   0  0  0  0  0  0  0  0  0  0  0  0
  1  2  1  0  0  0  0
  1  5  1  0  0  0  0
  1 10  2  0  0  0  0
  2  3  2  0  0  0  0
  2 25  1  0  0  0  0
  3  4  1  0  0  0  0
  3 20  1  0  0  0  0
  5  4  1  0  0  0  0
  6  4  2  0  0  0  0
  6  7  1  0  0  0  0
  7  8  2  0  0  0  0
  7 24  1  0  0  0  0
  8  9  1  0  0  0  0
  9  5  2  0  0  0  0
 10 11  1  0  0  0  0
 12 11  1  0  0  0  0
 12 13  2  0  0  0  0
 13 14  1  0  0  0  0
 14 15  2  0  0  0  0
 14 17  1  0  0  0  0
 15 16  1  0  0  0  0
 16 11  2  0  0  0  0
 17 18  2  0  0  0  0
 17 19  1  0  0  0  0
 20 21  1  0  0  0  0
 21 22  1  0  0  0  0
 21 23  2  0  0  0  0
M  END
