
 OpenBabel10141417493D

 57 60  0  0  1  0  0  0  0  0999 V2000
   -8.5676   -0.9000    9.5510 C   0  0  0  0  0  0  0  0  0  0  0  0
   -9.6221   -1.7381    9.4259 C   0  0  0  0  0  0  0  0  0  0  0  0
   -9.6431   -3.2337    9.6966 C   0  0  2  0  0  0  0  0  0  0  0  0
   -9.2982   -4.0305    8.4348 C   0  0  0  0  0  0  0  0  0  0  0  0
  -10.4534   -4.0851    7.4368 C   0  0  0  0  0  0  0  0  0  0  0  0
  -11.7309   -4.6374    8.0746 C   0  0  2  0  0  0  0  0  0  0  0  0
  -12.1479   -3.8655    9.3525 C   0  0  1  0  0  0  0  0  0  0  0  0
  -10.9595   -3.7331   10.3250 C   0  0  0  0  0  0  0  0  0  0  0  0
  -12.6952   -2.5897    8.9916 O   0  0  0  0  0  0  0  0  0  0  0  0
  -11.4983   -6.0167    8.3895 O   0  0  0  0  0  0  0  0  0  0  0  0
  -13.3452   -1.9129   10.0662 C   0  0  0  0  0  0  0  0  0  0  0  0
   -8.6420    0.6017    9.2177 C   0  0  2  0  0  0  0  0  0  0  0  0
   -7.1796   -1.3641    9.9351 C   0  0  0  0  0  0  0  0  0  0  0  0
   -9.0612    1.4641   10.4578 C   0  0  1  0  0  0  0  0  0  0  0  0
   -8.7097    2.9760   10.3283 C   0  0  2  0  0  0  0  0  0  0  0  0
   -9.3119    3.7072    9.1306 C   0  0  0  0  0  0  0  0  0  0  0  0
   -9.5470    5.1825    9.4338 C   0  0  0  0  0  0  0  0  0  0  0  0
   -8.7142    6.2365    8.6411 C   0  0  1  0  0  0  0  0  0  0  0  0
   -9.1644    6.2204    7.1708 C   0  0  0  0  0  0  0  0  0  0  0  0
   -9.1280    7.0946    6.1344 C   0  0  0  0  0  0  0  0  0  0  0  0
   -9.7088    6.6332    4.8078 C   0  0  0  0  0  0  0  0  0  0  0  0
   -8.6266    8.5281    6.0705 C   0  0  0  0  0  0  0  0  0  0  0  0
   -7.1043    8.7939    5.8804 C   0  0  2  0  0  0  0  0  0  0  0  0
   -6.9137   10.2748    5.5076 C   0  0  0  0  0  0  0  0  0  0  0  0
   -6.3767    7.8785    4.8520 C   0  0  0  0  0  0  0  0  0  0  0  0
   -5.0160    7.3620    5.4064 C   0  0  1  0  0  0  0  0  0  0  0  0
   -4.4318    6.1019    4.6805 C   0  0  2  0  0  0  0  0  0  0  0  0
   -3.3780    5.2980    5.5363 C   0  0  2  0  0  0  0  0  0  0  0  0
   -3.3647    3.7902    5.2051 C   0  0  0  0  0  0  0  0  0  0  0  0
   -4.7172    3.1842    4.7800 C   0  0  2  0  0  0  0  0  0  0  0  0
   -5.8807    4.1813    4.9377 C   0  0  2  0  0  0  0  0  0  0  0  0
   -5.5011    5.3049    4.1385 O   0  0  0  0  0  0  0  0  0  0  0  0
   -3.5852    5.5142    6.9431 O   0  0  0  0  0  0  0  0  0  0  0  0
   -4.0412    8.4091    5.5679 O   0  0  0  0  0  0  0  0  0  0  0  0
   -3.6608    9.1161    4.3980 C   0  0  0  0  0  0  0  0  0  0  0  0
   -2.6793    4.8744    7.8270 C   0  0  0  0  0  0  0  0  0  0  0  0
   -6.0711    4.6190    6.2641 O   0  0  0  0  0  0  0  0  0  0  0  0
   -7.1656    3.5831    4.2757 C   0  0  0  0  0  0  0  0  0  0  0  0
   -8.1024    2.8687    5.2566 C   0  0  0  0  0  0  0  0  0  0  0  0
   -9.2770    2.2178    4.8366 N   0  0  0  0  0  0  0  0  0  0  0  0
  -10.1159    2.8293    3.8034 C   0  0  0  0  0  0  0  0  0  0  0  0
  -10.0214    1.4922    5.9021 C   0  0  1  0  0  0  0  0  0  0  0  0
  -11.0329    0.5073    5.3025 C   0  0  0  0  0  0  0  0  0  0  0  0
  -11.9315    1.1664    4.2626 C   0  0  0  0  0  0  0  0  0  0  0  0
  -11.0914    1.8395    3.1863 C   0  0  0  0  0  0  0  0  0  0  0  0
   -7.7273    2.8244    6.4273 O   0  0  0  0  0  0  0  0  0  0  0  0
   -7.3817    3.5762    3.0684 O   0  0  0  0  0  0  0  0  0  0  0  0
   -4.9331    1.8259    5.4527 C   0  0  0  0  0  0  0  0  0  0  0  0
   -9.1196    0.6732    6.8719 C   0  0  0  0  0  0  0  0  0  0  0  0
   -8.1406    0.0363    6.5519 O   0  0  0  0  0  0  0  0  0  0  0  0
   -9.5803    0.8623    8.1518 O   0  0  0  0  0  0  0  0  0  0  0  0
  -10.5491    1.3195   10.8214 C   0  0  0  0  0  0  0  0  0  0  0  0
   -7.2860    3.1100   10.2429 O   0  0  0  0  0  0  0  0  0  0  0  0
  -10.4058    5.4883   10.2676 O   0  0  0  0  0  0  0  0  0  0  0  0
   -8.7674    7.6033    9.3560 C   0  0  0  0  0  0  0  0  0  0  0  0
   -8.2268    7.6381   10.7698 C   0  0  0  0  0  0  0  0  0  0  0  0
   -6.9695    7.9586   11.1047 C   0  0  0  0  0  0  0  0  0  0  0  0
  1  2  2  0  0  0  0
  1 13  1  0  0  0  0
  3  2  1  6  0  0  0
  3  4  1  0  0  0  0
  3  8  1  0  0  0  0
  4  5  1  0  0  0  0
  5  6  1  0  0  0  0
  6  7  1  0  0  0  0
  6 10  1  1  0  0  0
  7  8  1  0  0  0  0
  7  9  1  6  0  0  0
  9 11  1  0  0  0  0
 12 14  1  0  0  0  0
 12 51  1  0  0  0  0
 12  1  1  1  0  0  0
 14 15  1  0  0  0  0
 14 52  1  6  0  0  0
 15 16  1  0  0  0  0
 15 53  1  6  0  0  0
 16 17  1  0  0  0  0
 17 18  1  0  0  0  0
 17 54  2  0  0  0  0
 18 19  1  0  0  0  0
 18 55  1  1  0  0  0
 19 20  2  0  0  0  0
 20 22  1  0  0  0  0
 20 21  1  0  0  0  0
 22 23  1  0  0  0  0
 23 25  1  0  0  0  0
 23 24  1  6  0  0  0
 25 26  1  0  0  0  0
 26 27  1  0  0  0  0
 26 34  1  6  0  0  0
 27 28  1  0  0  0  0
 27 32  1  6  0  0  0
 28 29  1  0  0  0  0
 28 33  1  1  0  0  0
 29 30  1  0  0  0  0
 30 31  1  0  0  0  0
 30 48  1  1  0  0  0
 31 32  1  0  0  0  0
 31 38  1  0  0  0  0
 31 37  1  1  0  0  0
 33 36  1  0  0  0  0
 34 35  1  0  0  0  0
 38 39  1  0  0  0  0
 38 47  2  0  0  0  0
 39 40  1  0  0  0  0
 39 46  2  0  0  0  0
 41 40  1  0  0  0  0
 41 45  1  0  0  0  0
 42 40  1  6  0  0  0
 42 43  1  0  0  0  0
 42 49  1  0  0  0  0
 43 44  1  0  0  0  0
 44 45  1  0  0  0  0
 49 51  1  0  0  0  0
 49 50  2  0  0  0  0
 55 56  1  0  0  0  0
 56 57  2  0  0  0  0
M  END
