[NO NAME]
 OpenBabel10141417493D
Created with ChemWriter - http://chemwriter.com
 32 33  0  0  1  0  0  0  0  0999 V2000
    0.3121    1.2034    0.0730 F   0  0  0  0  0  0  0  0  0  0  0  0
    0.1611    3.0084   -1.1158 F   0  0  0  0  0  0  0  0  0  0  0  0
    2.0124   -0.1321   -7.6223 O   0  0  0  0  0  0  0  0  0  0  0  0
    0.9242   -2.0165   -5.9291 O   0  0  0  0  0  0  0  0  0  0  0  0
   -2.2771    2.0196   -2.3096 O   0  0  0  0  0  0  0  0  0  0  0  0
    5.0812   -0.9129  -12.0912 O   0  0  0  0  0  0  0  0  0  0  0  0
    5.5870    1.3226  -12.2784 O   0  0  0  0  0  0  0  0  0  0  0  0
    1.8087    0.9706   -5.4382 C   0  0  2  0  0  0  0  0  0  0  0  0
    1.0740   -0.0444   -4.5036 C   0  0  2  0  0  0  0  0  0  0  0  0
    1.2074    0.7528   -6.8432 C   0  0  2  0  0  0  0  0  0  0  0  0
    0.1912   -0.8853   -5.4541 C   0  0  1  0  0  0  0  0  0  0  0  0
   -0.1292    0.0576   -6.6122 C   0  0  0  0  0  0  0  0  0  0  0  0
    3.3452    0.8140   -5.3616 C   0  0  0  0  0  0  0  0  0  0  0  0
    0.2234    0.6678   -3.4659 C   0  0  0  0  0  0  0  0  0  0  0  0
    4.1108    1.7891   -6.2273 C   0  0  0  0  0  0  0  0  0  0  0  0
    0.6379    0.9963   -2.2283 C   0  0  0  0  0  0  0  0  0  0  0  0
    5.0111    1.5328   -7.1976 C   0  0  0  0  0  0  0  0  0  0  0  0
   -0.1434    1.6777   -1.1291 C   0  0  0  0  0  0  0  0  0  0  0  0
    5.4889    0.1896   -7.6962 C   0  0  0  0  0  0  0  0  0  0  0  0
   -1.6722    1.5208   -1.1105 C   0  0  0  0  0  0  0  0  0  0  0  0
    5.9228    0.1469   -9.1807 C   0  0  0  0  0  0  0  0  0  0  0  0
    4.7927    0.4555  -10.1615 C   0  0  0  0  0  0  0  0  0  0  0  0
    5.2169    0.3672  -11.6218 C   0  0  0  0  0  0  0  0  0  0  0  0
   -3.5910    2.3767   -2.2067 C   0  0  0  0  0  0  0  0  0  0  0  0
    5.3171   -1.1016  -13.5068 C   0  0  0  0  0  0  0  0  0  0  0  0
   -4.0166    3.3439   -3.1183 C   0  0  0  0  0  0  0  0  0  0  0  0
   -4.4940    1.8500   -1.2831 C   0  0  0  0  0  0  0  0  0  0  0  0
    6.8114   -1.2204  -13.7880 C   0  0  0  0  0  0  0  0  0  0  0  0
    4.6064   -2.3865  -13.9282 C   0  0  0  0  0  0  0  0  0  0  0  0
   -5.3205    3.8350   -3.0635 C   0  0  0  0  0  0  0  0  0  0  0  0
   -5.8011    2.3374   -1.2322 C   0  0  0  0  0  0  0  0  0  0  0  0
   -6.2100    3.3381   -2.1127 C   0  0  0  0  0  0  0  0  0  0  0  0
  1 18  1  0  0  0  0
  2 18  1  0  0  0  0
  5 20  1  0  0  0  0
  5 24  1  0  0  0  0
  6 23  1  0  0  0  0
  6 25  1  0  0  0  0
  7 23  2  0  0  0  0
  8  9  1  0  0  0  0
  8 10  1  0  0  0  0
  8 13  1  6  0  0  0
  9 11  1  0  0  0  0
  9 14  1  1  0  0  0
 10  3  1  6  0  0  0
 10 12  1  0  0  0  0
 11 12  1  0  0  0  0
 11  4  1  6  0  0  0
 13 15  1  0  0  0  0
 14 16  2  0  0  0  0
 15 17  2  0  0  0  0
 16 18  1  0  0  0  0
 17 19  1  0  0  0  0
 18 20  1  0  0  0  0
 19 21  1  0  0  0  0
 21 22  1  0  0  0  0
 22 23  1  0  0  0  0
 24 26  2  0  0  0  0
 24 27  1  0  0  0  0
 25 28  1  0  0  0  0
 25 29  1  0  0  0  0
 26 30  1  0  0  0  0
 27 31  2  0  0  0  0
 30 32  2  0  0  0  0
 31 32  1  0  0  0  0
M  END
