
 OpenBabel10141417513D

 16 16  0  0  1  0  0  0  0  0999 V2000
    2.0144   -1.3504   -1.0286 O   0  0  0  0  0  0  0  0  0  0  0  0
    2.7774    2.2849    1.9291 O   0  0  0  0  0  0  0  0  0  0  0  0
    2.9743   -1.9691    3.3308 O   0  0  0  0  0  0  0  0  0  0  0  0
    2.5171   -1.6115    1.1463 N   0  0  0  0  0  0  0  0  0  0  0  0
    3.0440    0.1472    2.5480 N   0  0  0  0  0  0  0  0  0  0  0  0
    2.7787    0.6376    0.1482 C   0  0  0  0  0  0  0  0  0  0  0  0
    4.2229    0.8239   -0.5084 C   0  0  3  0  0  0  0  0  0  0  0  0
    1.6903    1.4774   -0.5882 C   0  0  0  0  0  0  0  0  0  0  0  0
    4.7538    2.2876   -0.4673 C   0  0  0  0  0  0  0  0  0  0  0  0
    2.3744   -0.8337    0.0250 C   0  0  0  0  0  0  0  0  0  0  0  0
    2.8401    1.1057    1.5965 C   0  0  0  0  0  0  0  0  0  0  0  0
    5.2804   -0.1199    0.0973 C   0  0  0  0  0  0  0  0  0  0  0  0
    2.8597   -1.1850    2.3864 C   0  0  0  0  0  0  0  0  0  0  0  0
    6.1226    2.5080   -1.1160 C   0  0  0  0  0  0  0  0  0  0  0  0
    0.2931    1.3260   -0.0150 C   0  0  0  0  0  0  0  0  0  0  0  0
   -0.7658    0.9009   -0.7161 C   0  0  0  0  0  0  0  0  0  0  0  0
  1 10  2  0  0  0  0
  2 11  2  0  0  0  0
  3 13  2  0  0  0  0
  4 10  1  0  0  0  0
  4 13  1  0  0  0  0
  5 11  1  0  0  0  0
  5 13  1  0  0  0  0
  6  7  1  0  0  0  0
  6  8  1  0  0  0  0
  6 10  1  0  0  0  0
  6 11  1  0  0  0  0
  7  9  1  0  0  0  0
  7 12  1  0  0  0  0
  8 15  1  0  0  0  0
  9 14  1  0  0  0  0
 15 16  2  0  0  0  0
M  END
