
 OpenBabel10141417533D

 16 16  0  0  1  0  0  0  0  0999 V2000
    7.5552   -8.5955    4.0950 O   0  0  0  0  0  0  0  0  0  0  0  0
    5.5208   -3.8362    3.5728 N   0  0  0  0  0  0  0  0  0  0  0  0
    5.8946   -5.3208    0.8054 C   0  0  1  0  0  0  0  0  0  0  0  0
    4.6955   -4.3630    1.1550 C   0  0  2  0  0  0  0  0  0  0  0  0
    4.3967   -4.1895    2.6766 C   0  0  0  0  0  0  0  0  0  0  0  0
    6.1732   -5.3346   -0.7298 C   0  0  0  0  0  0  0  0  0  0  0  0
    5.8287   -6.7153    1.4244 C   0  0  0  0  0  0  0  0  0  0  0  0
    3.3789   -4.6943    0.4166 C   0  0  0  0  0  0  0  0  0  0  0  0
    7.5431   -5.8468   -1.1752 C   0  0  0  0  0  0  0  0  0  0  0  0
    6.6977   -7.0246    2.4887 C   0  0  0  0  0  0  0  0  0  0  0  0
    4.9584   -7.7291    0.9802 C   0  0  0  0  0  0  0  0  0  0  0  0
    6.1734   -2.5734    3.2285 C   0  0  0  0  0  0  0  0  0  0  0  0
    5.0484   -3.7690    4.9630 C   0  0  0  0  0  0  0  0  0  0  0  0
    6.7211   -8.2876    3.0639 C   0  0  0  0  0  0  0  0  0  0  0  0
    4.9946   -9.0026    1.5561 C   0  0  0  0  0  0  0  0  0  0  0  0
    5.8780   -9.2966    2.5927 C   0  0  0  0  0  0  0  0  0  0  0  0
  1 14  1  0  0  0  0
  2  5  1  0  0  0  0
  2 12  1  0  0  0  0
  2 13  1  0  0  0  0
  3  6  1  1  0  0  0
  3  7  1  0  0  0  0
  4  8  1  6  0  0  0
  4  5  1  0  0  0  0
  4  3  1  0  0  0  0
  6  9  1  0  0  0  0
  7 10  2  0  0  0  0
  7 11  1  0  0  0  0
 10 14  1  0  0  0  0
 11 15  2  0  0  0  0
 14 16  2  0  0  0  0
 15 16  1  0  0  0  0
M  END
