231
 OpenBabel10141417483D

 21 23  0  0  1  0  0  0  0  0999 V2000
    0.8966   -0.0329   -0.3881 Cl  0  0  0  0  0  0  0  0  0  0  0  0
    7.9668    2.7072   -2.1019 O   0  0  0  0  0  0  0  0  0  0  0  0
    8.9189    0.8636   -0.3604 O   0  0  0  0  0  0  0  0  0  0  0  0
    6.8467   -0.0397    0.1226 N   0  0  0  0  0  0  0  0  0  0  0  0
    6.3755    2.9494   -0.3427 N   0  0  0  0  0  0  0  0  0  0  0  0
    5.4192    0.0035    0.0440 C   0  0  0  0  0  0  0  0  0  0  0  0
    4.6816    1.2060    0.0474 C   0  0  0  0  0  0  0  0  0  0  0  0
    5.3222    2.5356    0.2775 C   0  0  0  0  0  0  0  0  0  0  0  0
    7.0076    2.0457   -1.2913 C   0  0  3  0  0  0  0  0  0  0  0  0
    7.6875    0.9202   -0.4589 C   0  0  0  0  0  0  0  0  0  0  0  0
    4.7135    3.4627    1.2849 C   0  0  0  0  0  0  0  0  0  0  0  0
    3.2831    1.1902   -0.1086 C   0  0  0  0  0  0  0  0  0  0  0  0
    4.7000   -1.2040   -0.0382 C   0  0  0  0  0  0  0  0  0  0  0  0
    7.4919   -1.2046    0.7140 C   0  0  0  0  0  0  0  0  0  0  0  0
    2.6064   -0.0190   -0.2148 C   0  0  0  0  0  0  0  0  0  0  0  0
    3.3072   -1.2166   -0.1681 C   0  0  0  0  0  0  0  0  0  0  0  0
    4.1362    2.9777    2.4655 C   0  0  0  0  0  0  0  0  0  0  0  0
    4.7545    4.8422    1.0487 C   0  0  0  0  0  0  0  0  0  0  0  0
    3.5787    3.8680    3.3859 C   0  0  0  0  0  0  0  0  0  0  0  0
    4.1964    5.7278    1.9718 C   0  0  0  0  0  0  0  0  0  0  0  0
    3.6056    5.2401    3.1368 C   0  0  0  0  0  0  0  0  0  0  0  0
  1 15  1  0  0  0  0
  2  9  1  0  0  0  0
  3 10  2  0  0  0  0
  4  6  1  0  0  0  0
  4 10  1  0  0  0  0
  4 14  1  0  0  0  0
  5  8  2  0  0  0  0
  5  9  1  0  0  0  0
  6  7  2  0  0  0  0
  6 13  1  0  0  0  0
  7  8  1  0  0  0  0
  7 12  1  0  0  0  0
  8 11  1  0  0  0  0
  9 10  1  0  0  0  0
 11 17  2  0  0  0  0
 11 18  1  0  0  0  0
 12 15  2  0  0  0  0
 13 16  2  0  0  0  0
 15 16  1  0  0  0  0
 17 19  1  0  0  0  0
 18 20  2  0  0  0  0
 19 21  2  0  0  0  0
 20 21  1  0  0  0  0
M  END
