464205
 OpenBabel10141417493D

 19 20  0  0  1  0  0  0  0  0999 V2000
    3.6038   -1.3920   -0.6589 P   0  0  0  0  0  0  0  0  0  0  0  0
    6.1344   -1.1153    0.2629 O   0  0  0  0  0  0  0  0  0  0  0  0
    2.5195   -2.5727   -0.7072 O   0  0  0  0  0  0  0  0  0  0  0  0
    2.9132   -0.4459    0.4399 O   0  0  0  0  0  0  0  0  0  0  0  0
    3.7138   -0.6847   -1.9686 O   0  0  0  0  0  0  0  0  0  0  0  0
    4.9191    1.1945    3.0525 N   0  0  0  0  0  0  0  0  0  0  0  0
    4.3084    2.4798    4.7761 N   0  0  0  0  0  0  0  0  0  0  0  0
    5.4644    2.9341    1.4300 N   0  0  0  0  0  0  0  0  0  0  0  0
    5.3870    5.1317    2.3821 N   0  0  0  0  0  0  0  0  0  0  0  0
    4.5474    5.6030    4.5077 N   0  0  0  0  0  0  0  0  0  0  0  0
    5.8474    0.1270    0.9260 C   0  0  1  0  0  0  0  0  0  0  0  0
    5.2537   -0.0298    2.3454 C   0  0  0  0  0  0  0  0  0  0  0  0
    5.0442    2.4931    2.6353 C   0  0  0  0  0  0  0  0  0  0  0  0
    7.1921    0.8789    0.9544 C   0  0  0  0  0  0  0  0  0  0  0  0
    4.7165    3.2731    3.7133 C   0  0  0  0  0  0  0  0  0  0  0  0
    4.4273    1.2382    4.3362 C   0  0  0  0  0  0  0  0  0  0  0  0
    5.0673   -2.0634    0.1109 C   0  0  0  0  0  0  0  0  0  0  0  0
    4.8629    4.6644    3.5264 C   0  0  0  0  0  0  0  0  0  0  0  0
    5.6576    4.2547    1.4137 C   0  0  0  0  0  0  0  0  0  0  0  0
  1  3  1  0  0  0  0
  1  4  1  0  0  0  0
  1  5  2  0  0  0  0
  1 17  1  0  0  0  0
  2 17  1  0  0  0  0
  6 12  1  0  0  0  0
  6 13  1  0  0  0  0
  6 16  1  0  0  0  0
  7 15  1  0  0  0  0
  7 16  2  0  0  0  0
  8 13  1  0  0  0  0
  8 19  2  0  0  0  0
  9 18  2  0  0  0  0
  9 19  1  0  0  0  0
 10 18  1  0  0  0  0
 11  2  1  1  0  0  0
 11 12  1  0  0  0  0
 11 14  1  0  0  0  0
 13 15  2  0  0  0  0
 15 18  1  0  0  0  0
M  END
