
 OpenBabel10141417493D

 22 23  0  0  1  0  0  0  0  0999 V2000
    1.2451    0.2956    0.1683 N   0  0  0  0  0  0  0  0  0  0  0  0
    0.8701    0.0411    1.5764 C   0  0  0  0  0  0  0  0  0  0  0  0
    1.7246   -0.9963    2.2961 C   0  0  0  0  0  0  0  0  0  0  0  0
    2.4309   -0.7163    3.5052 C   0  0  0  0  0  0  0  0  0  0  0  0
    3.1656   -1.7643    4.1211 C   0  0  0  0  0  0  0  0  0  0  0  0
   -5.5992   -0.7675   -1.5296 C   0  0  0  0  0  0  0  0  0  0  0  0
    0.3667    1.3121   -0.4389 C   0  0  0  0  0  0  0  0  0  0  0  0
    1.7865   -2.2915    1.7400 C   0  0  0  0  0  0  0  0  0  0  0  0
    2.4674    0.5496    4.1396 C   0  0  0  0  0  0  0  0  0  0  0  0
    2.6388    0.7420    0.0509 C   0  0  0  0  0  0  0  0  0  0  0  0
    3.1962   -3.0398    3.5407 C   0  0  0  0  0  0  0  0  0  0  0  0
    2.5222   -3.3008    2.3523 C   0  0  0  0  0  0  0  0  0  0  0  0
    3.8796   -1.5276    5.3082 C   0  0  0  0  0  0  0  0  0  0  0  0
   -6.0559   -1.0577   -0.0936 C   0  0  0  0  0  0  0  0  0  0  0  0
   -6.4160    0.3987   -2.1011 C   0  0  0  0  0  0  0  0  0  0  0  0
   -5.8033   -2.0166   -2.3970 C   0  0  0  0  0  0  0  0  0  0  0  0
   -1.0709    0.8860   -0.5143 C   0  0  0  0  0  0  0  0  0  0  0  0
    3.1992    0.7746    5.3084 C   0  0  0  0  0  0  0  0  0  0  0  0
    3.9038   -0.2649    5.8946 C   0  0  0  0  0  0  0  0  0  0  0  0
   -4.1648   -0.3969   -1.5352 C   0  0  0  0  0  0  0  0  0  0  0  0
   -1.6312    0.2697   -1.5642 C   0  0  0  0  0  0  0  0  0  0  0  0
   -3.0079   -0.0934   -1.5515 C   0  0  0  0  0  0  0  0  0  0  0  0
  1  2  1  0  0  0  0
  1  7  1  0  0  0  0
  1 10  1  0  0  0  0
  2  3  1  0  0  0  0
  3  4  1  0  0  0  0
  3  8  2  0  0  0  0
  4  5  1  0  0  0  0
  4  9  2  0  0  0  0
  5 11  1  0  0  0  0
  5 13  2  0  0  0  0
  6 14  1  0  0  0  0
  6 15  1  0  0  0  0
  6 16  1  0  0  0  0
  6 20  1  0  0  0  0
  7 17  1  0  0  0  0
  8 12  1  0  0  0  0
  9 18  1  0  0  0  0
 11 12  2  0  0  0  0
 13 19  1  0  0  0  0
 17 21  2  0  0  0  0
 18 19  2  0  0  0  0
 20 22  3  0  0  0  0
 21 22  1  0  0  0  0
M  END
