624
 OpenBabel10141417503D

 21 24  0  0  1  0  0  0  0  0999 V2000
    8.5789  -13.2504  -10.5048 O   0  0  0  0  0  0  0  0  0  0  0  0
    4.5634   -4.9323   -5.7265 O   0  0  0  0  0  0  0  0  0  0  0  0
    6.2182  -12.1908   -8.3192 C   0  0  2  0  0  0  0  0  0  0  0  0
    7.7884  -12.2720   -8.2793 C   0  0  2  0  0  0  0  0  0  0  0  0
    5.5699  -10.7886   -7.8045 C   0  0  1  0  0  0  0  0  0  0  0  0
    5.9536  -10.2432   -6.4025 C   0  0  1  0  0  0  0  0  0  0  0  0
    5.2519   -8.7826   -6.1057 C   0  0  2  0  0  0  0  0  0  0  0  0
    8.1973  -11.4686   -6.9706 C   0  0  0  0  0  0  0  0  0  0  0  0
    7.4928  -10.2282   -6.3658 C   0  0  0  0  0  0  0  0  0  0  0  0
    8.1927  -12.0163   -9.8352 C   0  0  2  0  0  0  0  0  0  0  0  0
    5.8438  -12.3362   -9.8266 C   0  0  0  0  0  0  0  0  0  0  0  0
    5.9255   -9.7000   -8.8146 C   0  0  0  0  0  0  0  0  0  0  0  0
    6.9470  -11.6205  -10.6164 C   0  0  0  0  0  0  0  0  0  0  0  0
    5.6184   -7.7781   -7.2024 C   0  0  0  0  0  0  0  0  0  0  0  0
    5.8286   -8.2306   -8.5863 C   0  0  0  0  0  0  0  0  0  0  0  0
    8.5934  -13.5977   -7.9913 C   0  0  0  0  0  0  0  0  0  0  0  0
    5.5376   -8.1488   -4.6745 C   0  0  0  0  0  0  0  0  0  0  0  0
    3.7018   -8.9759   -6.1321 C   0  0  0  0  0  0  0  0  0  0  0  0
    5.8589   -6.6333   -4.6095 C   0  0  0  0  0  0  0  0  0  0  0  0
    5.6857   -6.4464   -7.0719 C   0  0  0  0  0  0  0  0  0  0  0  0
    5.2744   -5.8978   -5.7853 C   0  0  0  0  0  0  0  0  0  0  0  0
  2 21  2  0  0  0  0
  3  4  1  0  0  0  0
  3  5  1  0  0  0  0
  3 11  1  1  0  0  0
  4  8  1  0  0  0  0
  4 10  1  0  0  0  0
  4 16  1  1  0  0  0
  5  6  1  0  0  0  0
  5 12  1  6  0  0  0
  6  7  1  0  0  0  0
  6  9  1  1  0  0  0
  7 14  1  0  0  0  0
  7 17  1  0  0  0  0
  7 18  1  6  0  0  0
  8  9  1  0  0  0  0
 10 13  1  0  0  0  0
 10  1  1  6  0  0  0
 11 13  1  0  0  0  0
 12 15  1  0  0  0  0
 14 15  1  0  0  0  0
 14 20  2  0  0  0  0
 17 19  1  0  0  0  0
 19 21  1  0  0  0  0
 20 21  1  0  0  0  0
M  END
