894
 OpenBabel10141417513D

 22 25  0  0  1  0  0  0  0  0999 V2000
    5.1774   -1.0663   -0.8073 O   0  0  0  0  0  0  0  0  0  0  0  0
    3.3944    0.1163   -1.5276 O   0  0  0  0  0  0  0  0  0  0  0  0
    3.2710   -9.4206   -1.2694 O   0  0  0  0  0  0  0  0  0  0  0  0
    4.3459   -3.5548    0.5684 C   0  0  2  0  0  0  0  0  0  0  0  0
    5.2332   -4.8051    0.7843 C   0  0  1  0  0  0  0  0  0  0  0  0
    5.1658   -2.2987    1.0375 C   0  0  1  0  0  0  0  0  0  0  0  0
    6.2483   -1.7674    0.0130 C   0  0  2  0  0  0  0  0  0  0  0  0
    4.5202   -6.1320    0.3207 C   0  0  1  0  0  0  0  0  0  0  0  0
    6.6341   -4.5370    0.1928 C   0  0  0  0  0  0  0  0  0  0  0  0
    7.1705   -3.0915    0.4019 C   0  0  0  0  0  0  0  0  0  0  0  0
    3.6796   -3.5505   -0.8358 C   0  0  0  0  0  0  0  0  0  0  0  0
    4.4034   -1.1005    1.6369 C   0  0  0  0  0  0  0  0  0  0  0  0
    4.0259   -6.0408   -1.1235 C   0  0  0  0  0  0  0  0  0  0  0  0
    3.9438   -4.7143   -1.7770 C   0  0  0  0  0  0  0  0  0  0  0  0
    6.7966   -2.0117   -1.4923 C   0  0  0  0  0  0  0  0  0  0  0  0
    3.2658   -6.4032    1.2181 C   0  0  0  0  0  0  0  0  0  0  0  0
    5.4490   -7.3473    0.4102 C   0  0  0  0  0  0  0  0  0  0  0  0
    3.3201   -0.6833    0.7048 C   0  0  0  0  0  0  0  0  0  0  0  0
    3.9756   -0.4614   -0.6142 C   0  0  0  0  0  0  0  0  0  0  0  0
    3.7209   -7.1530   -1.8238 C   0  0  0  0  0  0  0  0  0  0  0  0
    5.2395   -8.4386   -0.3515 C   0  0  0  0  0  0  0  0  0  0  0  0
    4.0106   -8.4333   -1.1673 C   0  0  0  0  0  0  0  0  0  0  0  0
  1  7  1  0  0  0  0
  1 19  1  0  0  0  0
  2 19  2  0  0  0  0
  3 22  2  0  0  0  0
  4  5  1  0  0  0  0
  4  6  1  0  0  0  0
  4 11  1  1  0  0  0
  5  8  1  0  0  0  0
  5  9  1  6  0  0  0
  6  7  1  0  0  0  0
  6 12  1  6  0  0  0
  7 10  1  0  0  0  0
  7 15  1  6  0  0  0
  8 13  1  0  0  0  0
  8 16  1  6  0  0  0
  8 17  1  0  0  0  0
  9 10  1  0  0  0  0
 11 14  1  0  0  0  0
 12 18  1  0  0  0  0
 13 14  1  0  0  0  0
 13 20  2  0  0  0  0
 17 21  2  0  0  0  0
 18 19  1  0  0  0  0
 20 22  1  0  0  0  0
 21 22  1  0  0  0  0
M  END
