1420
 OpenBabel10141417523D

 25 28  0  0  1  0  0  0  0  0999 V2000
   -5.8032    6.3051   -7.1578 O   0  0  0  0  0  0  0  0  0  0  0  0
   -5.9276    4.4669    3.2376 O   0  0  0  0  0  0  0  0  0  0  0  0
   -4.4713    4.7568   -8.2065 O   0  0  0  0  0  0  0  0  0  0  0  0
   -6.4659    6.6053   -4.3396 C   0  0  2  0  0  0  0  0  0  0  0  0
   -5.2384    5.7691   -4.8199 C   0  0  2  0  0  0  0  0  0  0  0  0
   -6.8688    6.4500   -2.8398 C   0  0  1  0  0  0  0  0  0  0  0  0
   -6.2979    5.1412   -2.2569 C   0  0  1  0  0  0  0  0  0  0  0  0
   -6.8546    4.8179   -0.8257 C   0  0  2  0  0  0  0  0  0  0  0  0
   -4.2000    5.7960   -3.6840 C   0  0  0  0  0  0  0  0  0  0  0  0
   -4.7420    5.1507   -2.3856 C   0  0  0  0  0  0  0  0  0  0  0  0
   -4.8257    6.5358   -6.1100 C   0  0  2  0  0  0  0  0  0  0  0  0
   -6.1750    8.0565   -4.7998 C   0  0  0  0  0  0  0  0  0  0  0  0
   -6.5276    7.6139   -1.8872 C   0  0  0  0  0  0  0  0  0  0  0  0
   -4.9700    8.0025   -5.7391 C   0  0  0  0  0  0  0  0  0  0  0  0
   -6.6785    6.0056    0.1081 C   0  0  0  0  0  0  0  0  0  0  0  0
   -5.5220    4.2966   -5.2005 C   0  0  0  0  0  0  0  0  0  0  0  0
   -7.0047    7.3707   -0.4514 C   0  0  0  0  0  0  0  0  0  0  0  0
   -6.1396    3.5615   -0.2551 C   0  0  0  0  0  0  0  0  0  0  0  0
   -8.3738    4.5068   -0.9316 C   0  0  0  0  0  0  0  0  0  0  0  0
   -6.4596    3.3021    1.2099 C   0  0  0  0  0  0  0  0  0  0  0  0
   -6.3324    5.8679    1.4009 C   0  0  0  0  0  0  0  0  0  0  0  0
   -6.1856    4.5338    2.0377 C   0  0  0  0  0  0  0  0  0  0  0  0
   -5.5255    5.3558   -8.0911 C   0  0  0  0  0  0  0  0  0  0  0  0
   -6.7352    5.1174   -8.9593 C   0  0  0  0  0  0  0  0  0  0  0  0
   -6.6938    6.0125  -10.1773 C   0  0  0  0  0  0  0  0  0  0  0  0
  1 23  1  0  0  0  0
  2 22  2  0  0  0  0
  3 23  2  0  0  0  0
  4  5  1  0  0  0  0
  4  6  1  0  0  0  0
  4 12  1  6  0  0  0
  5  9  1  0  0  0  0
  5 11  1  0  0  0  0
  5 16  1  6  0  0  0
  6  7  1  0  0  0  0
  6 13  1  1  0  0  0
  7  8  1  0  0  0  0
  7 10  1  6  0  0  0
  8 15  1  0  0  0  0
  8 18  1  0  0  0  0
  8 19  1  6  0  0  0
  9 10  1  0  0  0  0
 11 14  1  0  0  0  0
 11  1  1  6  0  0  0
 12 14  1  0  0  0  0
 13 17  1  0  0  0  0
 15 17  1  0  0  0  0
 15 21  2  0  0  0  0
 18 20  1  0  0  0  0
 20 22  1  0  0  0  0
 21 22  1  0  0  0  0
 23 24  1  0  0  0  0
 24 25  1  0  0  0  0
M  END
