116
 OpenBabel10141418113D

 32 34  0  0  1  0  0  0  0  0999 V2000
    1.3954   -1.9328   -3.4686 O   0  0  0  0  0  0  0  0  0  0  0  0
    0.7861  -11.9579   -0.8693 O   0  0  0  0  0  0  0  0  0  0  0  0
    4.5465  -12.5365   -3.5652 O   0  0  0  0  0  0  0  0  0  0  0  0
    4.0416  -14.6515   -4.0542 O   0  0  0  0  0  0  0  0  0  0  0  0
   -1.7107  -14.6627   -4.5598 O   0  0  0  0  0  0  0  0  0  0  0  0
   -1.5756  -12.6008   -5.4036 O   0  0  0  0  0  0  0  0  0  0  0  0
    3.2711   -3.4738   -2.0471 N   0  0  0  0  0  0  0  0  0  0  0  0
    5.9467   -3.1636   -2.8761 N   0  0  0  0  0  0  0  0  0  0  0  0
    2.4557   -5.7978   -0.4236 N   0  0  0  0  0  0  0  0  0  0  0  0
    5.1966   -1.4948   -4.4299 N   0  0  0  0  0  0  0  0  0  0  0  0
    2.9758   -0.7700   -4.6536 N   0  0  0  0  0  0  0  0  0  0  0  0
    2.3198  -11.8582   -2.5721 N   0  0  0  0  0  0  0  0  0  0  0  0
    4.6850    0.2132   -5.8404 N   0  0  0  0  0  0  0  0  0  0  0  0
    4.1885   -4.5908   -1.7587 C   0  0  3  0  0  0  0  0  0  0  0  0
    5.6567   -4.0709   -1.7463 C   0  0  0  0  0  0  0  0  0  0  0  0
    3.8233   -5.2443   -0.4060 C   0  0  0  0  0  0  0  0  0  0  0  0
    3.6462   -2.5467   -3.0284 C   0  0  0  0  0  0  0  0  0  0  0  0
    4.9303   -2.3979   -3.4434 C   0  0  0  0  0  0  0  0  0  0  0  0
    2.2419   -7.1394   -0.7426 C   0  0  0  0  0  0  0  0  0  0  0  0
    2.5807   -1.7226   -3.7359 C   0  0  0  0  0  0  0  0  0  0  0  0
    4.2311   -0.7012   -4.9473 C   0  0  0  0  0  0  0  0  0  0  0  0
    2.3041  -13.2611   -2.9803 C   0  0  1  0  0  0  0  0  0  0  0  0
    1.2231  -13.5026   -4.0377 C   0  0  0  0  0  0  0  0  0  0  0  0
    3.2093   -7.9203   -1.3768 C   0  0  0  0  0  0  0  0  0  0  0  0
    0.9813   -7.7187   -0.5246 C   0  0  0  0  0  0  0  0  0  0  0  0
    1.7714   -9.8588   -1.3400 C   0  0  0  0  0  0  0  0  0  0  0  0
    2.9886   -9.2650   -1.6517 C   0  0  0  0  0  0  0  0  0  0  0  0
    0.7442   -9.0766   -0.8027 C   0  0  0  0  0  0  0  0  0  0  0  0
   -0.1762  -13.1914   -3.5180 C   0  0  0  0  0  0  0  0  0  0  0  0
    1.5679  -11.3241   -1.5480 C   0  0  0  0  0  0  0  0  0  0  0  0
    3.6850  -13.5923   -3.5766 C   0  0  0  0  0  0  0  0  0  0  0  0
   -1.2101  -13.4152   -4.5745 C   0  0  0  0  0  0  0  0  0  0  0  0
  1 20  2  0  0  0  0
  2 30  2  0  0  0  0
  3 31  1  0  0  0  0
  4 31  2  0  0  0  0
  5 32  1  0  0  0  0
  6 32  2  0  0  0  0
  7 14  1  0  0  0  0
  7 17  1  0  0  0  0
  8 15  1  0  0  0  0
  8 18  1  0  0  0  0
  9 16  1  0  0  0  0
  9 19  1  0  0  0  0
 10 18  1  0  0  0  0
 10 21  1  0  0  0  0
 11 20  1  0  0  0  0
 11 21  2  0  0  0  0
 12 30  1  0  0  0  0
 13 21  1  0  0  0  0
 14 15  1  0  0  0  0
 14 16  1  0  0  0  0
 17 18  2  0  0  0  0
 17 20  1  0  0  0  0
 19 24  2  0  0  0  0
 19 25  1  0  0  0  0
 22 12  1  6  0  0  0
 22 23  1  0  0  0  0
 22 31  1  0  0  0  0
 23 29  1  0  0  0  0
 24 27  1  0  0  0  0
 25 28  2  0  0  0  0
 26 27  2  0  0  0  0
 26 28  1  0  0  0  0
 26 30  1  0  0  0  0
 29 32  1  0  0  0  0
M  END
