
 OpenBabel10141417533D

 23 25  0  0  1  0  0  0  0  0999 V2000
    0.8072   -0.4918    0.8800 O   0  0  0  0  0  0  0  0  0  0  0  0
    6.0071    2.9525    4.9479 O   0  0  0  0  0  0  0  0  0  0  0  0
    7.4525    0.6875    5.9835 O   0  0  0  0  0  0  0  0  0  0  0  0
    4.6791   -0.9758    0.3776 N   0  0  3  0  0  0  0  0  0  0  0  0
    4.3696    0.1852    1.2292 C   0  0  3  0  0  0  0  0  0  0  0  0
    2.5448   -0.1371   -0.7732 C   0  0  3  0  0  0  0  0  0  0  0  0
    3.6898   -1.1772   -0.7099 C   0  0  0  0  0  0  0  0  0  0  0  0
    2.9139    0.2022    1.7339 C   0  0  0  0  0  0  0  0  0  0  0  0
    4.8702   -2.1949    1.1867 C   0  0  0  0  0  0  0  0  0  0  0  0
    5.2851    0.3358    2.4290 C   0  0  0  0  0  0  0  0  0  0  0  0
    1.9752   -0.1738    0.6272 C   0  0  0  0  0  0  0  0  0  0  0  0
    1.5364   -0.4645   -1.8971 C   0  0  0  0  0  0  0  0  0  0  0  0
    6.0075   -2.0580    2.2201 C   0  0  0  0  0  0  0  0  0  0  0  0
    5.9831   -0.7484    2.9677 C   0  0  0  0  0  0  0  0  0  0  0  0
    0.3264    0.4952   -2.0456 C   0  0  0  0  0  0  0  0  0  0  0  0
    5.3268    1.5812    3.0741 C   0  0  0  0  0  0  0  0  0  0  0  0
    6.6988   -0.5671    4.1626 C   0  0  0  0  0  0  0  0  0  0  0  0
    0.7133    1.9275   -2.4158 C   0  0  0  0  0  0  0  0  0  0  0  0
   -0.6705   -0.0387   -3.0855 C   0  0  0  0  0  0  0  0  0  0  0  0
    6.0184    1.7653    4.2699 C   0  0  0  0  0  0  0  0  0  0  0  0
    6.7240    0.6806    4.8163 C   0  0  0  0  0  0  0  0  0  0  0  0
    5.2828    4.0428    4.3998 C   0  0  0  0  0  0  0  0  0  0  0  0
    7.9396    1.9554    6.4175 C   0  0  0  0  0  0  0  0  0  0  0  0
  1 11  2  0  0  0  0
  2 20  1  0  0  0  0
  2 22  1  0  0  0  0
  3 21  1  0  0  0  0
  3 23  1  0  0  0  0
  4  5  1  0  0  0  0
  4  7  1  0  0  0  0
  4  9  1  0  0  0  0
  5  8  1  0  0  0  0
  5 10  1  0  0  0  0
  6  7  1  0  0  0  0
  6 11  1  0  0  0  0
  6 12  1  0  0  0  0
  8 11  1  0  0  0  0
  9 13  1  0  0  0  0
 10 14  1  0  0  0  0
 10 16  2  0  0  0  0
 12 15  1  0  0  0  0
 13 14  1  0  0  0  0
 14 17  2  0  0  0  0
 15 18  1  0  0  0  0
 15 19  1  0  0  0  0
 16 20  1  0  0  0  0
 17 21  1  0  0  0  0
 20 21  2  0  0  0  0
M  END
