1412
 OpenBabel10141417503D

 13 14  0  0  0  0  0  0  0  0999 V2000
    0.9933   -0.0579    0.0154 O   0  0  0  0  0  0  0  0  0  0  0  0
    4.9264   -2.3030    0.0306 O   0  0  0  0  0  0  0  0  0  0  0  0
    2.6491    2.5165    0.0204 N   0  0  0  0  0  0  0  0  0  0  0  0
    5.0728    0.0047    0.0304 N   0  0  0  0  0  0  0  0  0  0  0  0
    2.9991   -1.1340    0.0217 N   0  0  0  0  0  0  0  0  0  0  0  0
    4.8757    2.4417    0.0296 N   0  0  0  0  0  0  0  0  0  0  0  0
    2.9890    1.1944    0.0221 C   0  0  0  0  0  0  0  0  0  0  0  0
    4.3576    1.1830    0.0275 C   0  0  0  0  0  0  0  0  0  0  0  0
    2.2176   -0.0004    0.0193 C   0  0  0  0  0  0  0  0  0  0  0  0
    4.3787   -1.2002    0.0278 C   0  0  0  0  0  0  0  0  0  0  0  0
    3.8211    3.2311    0.0253 C   0  0  0  0  0  0  0  0  0  0  0  0
    6.5196   -0.0222    0.0363 C   0  0  0  0  0  0  0  0  0  0  0  0
    1.3343    3.1053    0.0142 C   0  0  0  0  0  0  0  0  0  0  0  0
  1  9  2  0  0  0  0
  2 10  2  0  0  0  0
  3  7  1  0  0  0  0
  3 11  1  0  0  0  0
  3 13  1  0  0  0  0
  4  8  1  0  0  0  0
  4 10  1  0  0  0  0
  4 12  1  0  0  0  0
  5  9  1  0  0  0  0
  5 10  1  0  0  0  0
  6  8  1  0  0  0  0
  6 11  2  0  0  0  0
  7  8  2  0  0  0  0
  7  9  1  0  0  0  0
M  END
