1154
 OpenBabel10141417503D

 17 17  0  0  1  0  0  0  0  0999 V2000
    0.8230   -0.1984   -0.4993 S   0  0  0  0  0  0  0  0  0  0  0  0
    4.6331    2.4132    0.9884 O   0  0  0  0  0  0  0  0  0  0  0  0
    4.7115   -2.3363    1.4975 O   0  0  0  0  0  0  0  0  0  0  0  0
    3.0214    1.0709    0.2019 N   0  0  0  0  0  0  0  0  0  0  0  0
    3.0121   -1.2214    0.5492 N   0  0  0  0  0  0  0  0  0  0  0  0
    5.0780    0.0323    1.0984 C   0  0  0  0  0  0  0  0  0  0  0  0
    6.2309   -0.1129    0.0160 C   0  0  3  0  0  0  0  0  0  0  0  0
    5.6814   -0.3011   -1.4316 C   0  0  0  0  0  0  0  0  0  0  0  0
    5.6553    0.1963    2.5367 C   0  0  0  0  0  0  0  0  0  0  0  0
    7.2528    1.0388    0.0565 C   0  0  0  0  0  0  0  0  0  0  0  0
    4.2445    1.2685    0.7829 C   0  0  0  0  0  0  0  0  0  0  0  0
    4.2703   -1.2651    1.0910 C   0  0  0  0  0  0  0  0  0  0  0  0
    6.7603   -0.4372   -2.5158 C   0  0  0  0  0  0  0  0  0  0  0  0
    4.6116    0.3066    3.6262 C   0  0  0  0  0  0  0  0  0  0  0  0
    2.3661   -0.1129    0.1104 C   0  0  0  0  0  0  0  0  0  0  0  0
    6.1587   -0.6128   -3.9039 C   0  0  0  0  0  0  0  0  0  0  0  0
    4.1260   -0.7380    4.3085 C   0  0  0  0  0  0  0  0  0  0  0  0
  1 15  2  0  0  0  0
  2 11  2  0  0  0  0
  3 12  2  0  0  0  0
  4 11  1  0  0  0  0
  4 15  1  0  0  0  0
  5 12  1  0  0  0  0
  5 15  1  0  0  0  0
  6  7  1  0  0  0  0
  6  9  1  0  0  0  0
  6 11  1  0  0  0  0
  6 12  1  0  0  0  0
  7  8  1  0  0  0  0
  7 10  1  0  0  0  0
  8 13  1  0  0  0  0
  9 14  1  0  0  0  0
 13 16  1  0  0  0  0
 14 17  2  0  0  0  0
M  END
