1622
 OpenBabel10141417503D

 30 33  0  0  0  0  0  0  0  0999 V2000
   -0.1066   -2.1159    0.4093 S   0  0  0  0  0  0  0  0  0  0  0  0
    5.1478    1.3674    0.0305 S   0  0  0  0  0  0  0  0  0  0  0  0
    4.8457    2.7488    0.3644 O   0  0  0  0  0  0  0  0  0  0  0  0
    6.1746    0.6332    0.7461 O   0  0  0  0  0  0  0  0  0  0  0  0
   -1.3008    5.2638   -0.6450 N   0  0  0  0  0  0  0  0  0  0  0  0
   -2.7199    7.1065   -2.6057 N   0  0  0  0  0  0  0  0  0  0  0  0
   -0.1077    1.0458    0.1318 N   0  0  0  0  0  0  0  0  0  0  0  0
    5.4828    1.3117   -1.6413 N   0  0  0  0  0  0  0  0  0  0  0  0
   -2.5693    4.9200   -1.3229 C   0  0  0  0  0  0  0  0  0  0  0  0
   -1.1946    6.7441   -0.5854 C   0  0  0  0  0  0  0  0  0  0  0  0
   -0.1190    4.6677   -1.2903 C   0  0  0  0  0  0  0  0  0  0  0  0
   -2.8124    5.6369   -2.6709 C   0  0  0  0  0  0  0  0  0  0  0  0
   -1.4688    7.4886   -1.9202 C   0  0  0  0  0  0  0  0  0  0  0  0
   -0.0722    3.1270   -1.2630 C   0  0  0  0  0  0  0  0  0  0  0  0
   -0.1110    2.5390    0.1580 C   0  0  0  0  0  0  0  0  0  0  0  0
   -3.8906    7.6804   -1.9404 C   0  0  0  0  0  0  0  0  0  0  0  0
    1.1631    0.3913    0.1717 C   0  0  0  0  0  0  0  0  0  0  0  0
   -1.3760    0.3816    0.1190 C   0  0  0  0  0  0  0  0  0  0  0  0
    1.2741   -1.0086    0.3251 C   0  0  0  0  0  0  0  0  0  0  0  0
   -1.4852   -1.0239    0.1926 C   0  0  0  0  0  0  0  0  0  0  0  0
    2.3845    1.0979    0.0631 C   0  0  0  0  0  0  0  0  0  0  0  0
    3.6296    0.4494    0.1455 C   0  0  0  0  0  0  0  0  0  0  0  0
   -2.6021    1.0763    0.0147 C   0  0  0  0  0  0  0  0  0  0  0  0
    2.5311   -1.6435    0.4299 C   0  0  0  0  0  0  0  0  0  0  0  0
    3.7068   -0.9180    0.3534 C   0  0  0  0  0  0  0  0  0  0  0  0
   -2.7362   -1.6744    0.1167 C   0  0  0  0  0  0  0  0  0  0  0  0
   -3.8440    0.4274   -0.0691 C   0  0  0  0  0  0  0  0  0  0  0  0
   -3.9115   -0.9532   -0.0310 C   0  0  0  0  0  0  0  0  0  0  0  0
    4.6145    2.1470   -2.4992 C   0  0  0  0  0  0  0  0  0  0  0  0
    6.9124    1.4808   -1.9742 C   0  0  0  0  0  0  0  0  0  0  0  0
  1 19  1  0  0  0  0
  1 20  1  0  0  0  0
  2  3  2  0  0  0  0
  2  4  2  0  0  0  0
  2  8  1  0  0  0  0
  2 22  1  0  0  0  0
  5  9  1  0  0  0  0
  5 10  1  0  0  0  0
  5 11  1  0  0  0  0
  6 12  1  0  0  0  0
  6 13  1  0  0  0  0
  6 16  1  0  0  0  0
  7 15  1  0  0  0  0
  7 17  1  0  0  0  0
  7 18  1  0  0  0  0
  8 29  1  0  0  0  0
  8 30  1  0  0  0  0
  9 12  1  0  0  0  0
 10 13  1  0  0  0  0
 11 14  1  0  0  0  0
 14 15  1  0  0  0  0
 17 19  2  0  0  0  0
 17 21  1  0  0  0  0
 18 20  1  0  0  0  0
 18 23  2  0  0  0  0
 19 24  1  0  0  0  0
 20 26  2  0  0  0  0
 21 22  2  0  0  0  0
 22 25  1  0  0  0  0
 23 27  1  0  0  0  0
 24 25  2  0  0  0  0
 26 28  1  0  0  0  0
 27 28  2  0  0  0  0
M  END
