906
 OpenBabel10141417503D

 25 27  0  0  1  0  0  0  0  0999 V2000
    0.2731   -0.8460    0.9838 S   0  0  0  0  0  0  0  0  0  0  0  0
    1.5498   -4.1931    0.0639 S   0  0  0  0  0  0  0  0  0  0  0  0
    7.4931    4.4433    3.1164 O   0  0  0  0  0  0  0  0  0  0  0  0
    5.4159    5.0718    2.6562 O   0  0  0  0  0  0  0  0  0  0  0  0
    5.2372    2.5328    0.2957 N   0  0  0  0  0  0  0  0  0  0  0  0
    6.8798    4.3507    0.8187 C   0  0  1  0  0  0  0  0  0  0  0  0
    6.6588    2.8690    0.4998 C   0  0  0  0  0  0  0  0  0  0  0  0
    6.1748    5.2710   -0.1792 C   0  0  0  0  0  0  0  0  0  0  0  0
    4.7428    4.8304   -0.4546 C   0  0  0  0  0  0  0  0  0  0  0  0
    4.6604    3.3427   -0.7852 C   0  0  0  0  0  0  0  0  0  0  0  0
    5.0654    1.0826    0.0899 C   0  0  0  0  0  0  0  0  0  0  0  0
    3.5975    0.6390   -0.1055 C   0  0  0  0  0  0  0  0  0  0  0  0
    6.4745    4.6559    2.2499 C   0  0  0  0  0  0  0  0  0  0  0  0
    3.4995   -0.8529   -0.2949 C   0  0  0  0  0  0  0  0  0  0  0  0
    2.7844   -1.7602    0.4095 C   0  0  0  0  0  0  0  0  0  0  0  0
    1.8912   -1.2808    1.4395 C   0  0  0  0  0  0  0  0  0  0  0  0
    2.9443   -3.1595    0.0565 C   0  0  0  0  0  0  0  0  0  0  0  0
    2.0824   -1.0916    2.8081 C   0  0  0  0  0  0  0  0  0  0  0  0
    4.0803   -3.8937   -0.3132 C   0  0  0  0  0  0  0  0  0  0  0  0
    0.9245   -0.5070    3.4284 C   0  0  0  0  0  0  0  0  0  0  0  0
    3.7847   -5.2900   -0.4781 C   0  0  0  0  0  0  0  0  0  0  0  0
    3.3140   -1.4046    3.5933 C   0  0  0  0  0  0  0  0  0  0  0  0
    5.4723   -3.3661   -0.4869 C   0  0  0  0  0  0  0  0  0  0  0  0
   -0.1120   -0.3076    2.5512 C   0  0  0  0  0  0  0  0  0  0  0  0
    2.4607   -5.5842   -0.2777 C   0  0  0  0  0  0  0  0  0  0  0  0
  1 16  1  0  0  0  0
  1 24  1  0  0  0  0
  2 17  1  0  0  0  0
  2 25  1  0  0  0  0
  3 13  1  0  0  0  0
  4 13  2  0  0  0  0
  5  7  1  0  0  0  0
  5 10  1  0  0  0  0
  5 11  1  0  0  0  0
  6  7  1  0  0  0  0
  6  8  1  0  0  0  0
  6 13  1  1  0  0  0
  8  9  1  0  0  0  0
  9 10  1  0  0  0  0
 11 12  1  0  0  0  0
 12 14  1  0  0  0  0
 14 15  2  0  0  0  0
 15 16  1  0  0  0  0
 15 17  1  0  0  0  0
 16 18  2  0  0  0  0
 17 19  2  0  0  0  0
 18 20  1  0  0  0  0
 18 22  1  0  0  0  0
 19 21  1  0  0  0  0
 19 23  1  0  0  0  0
 20 24  2  0  0  0  0
 21 25  2  0  0  0  0
M  END
