1607
 OpenBabel10141417523D

 25 27  0  0  1  0  0  0  0  0999 V2000
   -1.9674    0.2787    0.0354 S   0  0  0  0  0  0  0  0  0  0  0  0
   -4.6259   -3.7692    2.2900 S   0  0  0  0  0  0  0  0  0  0  0  0
    1.7450    1.5772    1.3670 O   0  0  0  0  0  0  0  0  0  0  0  0
    0.2666    2.7270   -2.7639 O   0  0  0  0  0  0  0  0  0  0  0  0
   -1.6547    3.7154   -2.3194 O   0  0  0  0  0  0  0  0  0  0  0  0
   -0.4259   -3.0617    0.1990 O   0  0  0  0  0  0  0  0  0  0  0  0
    0.2323   -5.4551    1.9341 O   0  0  0  0  0  0  0  0  0  0  0  0
    1.0909   -4.5124    3.7865 O   0  0  0  0  0  0  0  0  0  0  0  0
    0.3688    1.3559   -0.5235 N   0  0  0  0  0  0  0  0  0  0  0  0
    0.4162   -1.3376    1.4368 N   0  0  0  0  0  0  0  0  0  0  0  0
   -0.2859    0.0476   -0.6720 C   0  0  1  0  0  0  0  0  0  0  0  0
   -1.7778    2.1046    0.3120 C   0  0  0  0  0  0  0  0  0  0  0  0
   -0.5073    2.5287   -0.4692 C   0  0  2  0  0  0  0  0  0  0  0  0
    0.8233   -0.5396    0.2425 C   0  0  1  0  0  0  0  0  0  0  0  0
    1.1608    0.9491    0.5023 C   0  0  0  0  0  0  0  0  0  0  0  0
   -3.0825    2.7964   -0.1034 C   0  0  0  0  0  0  0  0  0  0  0  0
   -1.6068    2.3265    1.8273 C   0  0  0  0  0  0  0  0  0  0  0  0
   -0.7419    3.0155   -1.9111 C   0  0  0  0  0  0  0  0  0  0  0  0
   -0.2047   -2.5637    1.3035 C   0  0  0  0  0  0  0  0  0  0  0  0
   -0.5867   -3.2589    2.6041 C   0  0  1  0  0  0  0  0  0  0  0  0
   -2.0676   -3.6149    2.7074 C   0  0  0  0  0  0  0  0  0  0  0  0
    0.3159   -4.4531    2.8378 C   0  0  0  0  0  0  0  0  0  0  0  0
   -2.6522   -4.3038    3.8333 C   0  0  0  0  0  0  0  0  0  0  0  0
   -3.0618   -3.2798    1.8013 C   0  0  0  0  0  0  0  0  0  0  0  0
   -4.0190   -4.4470    3.7315 C   0  0  0  0  0  0  0  0  0  0  0  0
  1 12  1  0  0  0  0
  2 24  1  0  0  0  0
  2 25  1  0  0  0  0
  3 15  2  0  0  0  0
  4 18  1  0  0  0  0
  5 18  2  0  0  0  0
  6 19  2  0  0  0  0
  7 22  1  0  0  0  0
  8 22  2  0  0  0  0
  9 11  1  0  0  0  0
  9 13  1  0  0  0  0
  9 15  1  0  0  0  0
 10 19  1  0  0  0  0
 11  1  1  1  0  0  0
 11 14  1  0  0  0  0
 12 13  1  0  0  0  0
 12 16  1  0  0  0  0
 12 17  1  0  0  0  0
 13 18  1  6  0  0  0
 14 15  1  0  0  0  0
 14 10  1  1  0  0  0
 20 19  1  6  0  0  0
 20 21  1  0  0  0  0
 20 22  1  0  0  0  0
 21 23  1  0  0  0  0
 21 24  2  0  0  0  0
 23 25  2  0  0  0  0
M  END
