1133
 OpenBabel10141417503D

 17 17  0  0  0  0  0  0  0  0999 V2000
   11.7381    2.9472    2.8660 Cl  0  0  0  0  0  0  0  0  0  0  0  0
    7.2912    0.2560   -0.6734 S   0  0  0  0  0  0  0  0  0  0  0  0
    6.4654   -2.2752   -1.7809 P   0  0  0  0  0  0  0  0  0  0  0  0
    9.4294   -1.6903   -1.3249 P   0  0  0  0  0  0  0  0  0  0  0  0
    6.3201   -3.8079   -1.3216 O   0  0  0  0  0  0  0  0  0  0  0  0
    5.0400   -1.7387   -1.2656 O   0  0  0  0  0  0  0  0  0  0  0  0
   10.3596   -1.6685   -0.0108 O   0  0  0  0  0  0  0  0  0  0  0  0
    9.6541   -3.2214   -1.7531 O   0  0  0  0  0  0  0  0  0  0  0  0
    6.5625   -2.1726   -3.2730 O   0  0  0  0  0  0  0  0  0  0  0  0
    9.9776   -0.7702   -2.3641 O   0  0  0  0  0  0  0  0  0  0  0  0
    7.7434   -1.5347   -0.7554 C   0  0  0  0  0  0  0  0  0  0  0  0
    8.5574    0.9486    0.3600 C   0  0  0  0  0  0  0  0  0  0  0  0
    9.5106    1.7828   -0.2346 C   0  0  0  0  0  0  0  0  0  0  0  0
    8.5727    0.7663    1.7457 C   0  0  0  0  0  0  0  0  0  0  0  0
   10.4966    2.3981    0.5376 C   0  0  0  0  0  0  0  0  0  0  0  0
    9.5572    1.3886    2.5231 C   0  0  0  0  0  0  0  0  0  0  0  0
   10.5193    2.1939    1.9140 C   0  0  0  0  0  0  0  0  0  0  0  0
  1 17  1  0  0  0  0
  2 11  1  0  0  0  0
  2 12  1  0  0  0  0
  3  5  1  0  0  0  0
  3  6  1  0  0  0  0
  3  9  2  0  0  0  0
  3 11  1  0  0  0  0
  4  7  1  0  0  0  0
  4  8  1  0  0  0  0
  4 10  2  0  0  0  0
  4 11  1  0  0  0  0
 12 13  2  0  0  0  0
 12 14  1  0  0  0  0
 13 15  1  0  0  0  0
 14 16  2  0  0  0  0
 15 17  2  0  0  0  0
 16 17  1  0  0  0  0
M  END
