1007
 OpenBabel10141418203D

 23 25  0  0  1  0  0  0  0  0999 V2000
    2.9784   -0.4737   -2.4138 Cl  0  0  0  0  0  0  0  0  0  0  0  0
    7.3846   -2.4210   -0.0862 Cl  0  0  0  0  0  0  0  0  0  0  0  0
    1.0962   -1.3609    2.7885 Cl  0  0  0  0  0  0  0  0  0  0  0  0
   -0.1718    0.4553    4.7173 S   0  0  0  0  0  0  0  0  0  0  0  0
    2.4574    1.8194    1.0468 O   0  0  0  0  0  0  0  0  0  0  0  0
    4.2217    3.4240   -1.8000 N   0  0  0  0  0  0  0  0  0  0  0  0
    5.7808    3.8959   -3.2961 N   0  0  0  0  0  0  0  0  0  0  0  0
    3.0702    1.8259   -0.2541 C   0  0  3  0  0  0  0  0  0  0  0  0
    3.6041    3.2456   -0.5070 C   0  0  0  0  0  0  0  0  0  0  0  0
    4.1529    0.7585   -0.2518 C   0  0  0  0  0  0  0  0  0  0  0  0
    1.0870    1.4181    1.0073 C   0  0  0  0  0  0  0  0  0  0  0  0
    4.1768   -0.2999   -1.1793 C   0  0  0  0  0  0  0  0  0  0  0  0
    5.1691    0.8025    0.7249 C   0  0  0  0  0  0  0  0  0  0  0  0
    3.6272    3.2699   -3.0213 C   0  0  0  0  0  0  0  0  0  0  0  0
    0.5353    1.3355    2.3935 C   0  0  0  0  0  0  0  0  0  0  0  0
    5.5174    3.7982   -2.0167 C   0  0  0  0  0  0  0  0  0  0  0  0
    5.1758   -1.2780   -1.1289 C   0  0  0  0  0  0  0  0  0  0  0  0
    6.1696   -0.1714    0.7710 C   0  0  0  0  0  0  0  0  0  0  0  0
    6.1664   -1.2084   -0.1553 C   0  0  0  0  0  0  0  0  0  0  0  0
    4.6137    3.5604   -3.9344 C   0  0  0  0  0  0  0  0  0  0  0  0
   -0.0442    2.4449    3.1039 C   0  0  0  0  0  0  0  0  0  0  0  0
    0.5139    0.2099    3.1878 C   0  0  0  0  0  0  0  0  0  0  0  0
   -0.4643    2.1050    4.3726 C   0  0  0  0  0  0  0  0  0  0  0  0
  1 12  1  0  0  0  0
  2 19  1  0  0  0  0
  3 22  1  0  0  0  0
  4 22  1  0  0  0  0
  4 23  1  0  0  0  0
  5  8  1  0  0  0  0
  5 11  1  0  0  0  0
  6  9  1  0  0  0  0
  6 14  1  0  0  0  0
  6 16  1  0  0  0  0
  7 16  2  0  0  0  0
  7 20  1  0  0  0  0
  8  9  1  0  0  0  0
  8 10  1  0  0  0  0
 10 12  2  0  0  0  0
 10 13  1  0  0  0  0
 11 15  1  0  0  0  0
 12 17  1  0  0  0  0
 13 18  2  0  0  0  0
 14 20  2  0  0  0  0
 15 21  1  0  0  0  0
 15 22  2  0  0  0  0
 17 19  2  0  0  0  0
 18 19  1  0  0  0  0
 21 23  2  0  0  0  0
M  END
