2723601
 OpenBabel10141417493D

 11 12  0  0  0  0  0  0  0  0999 V2000
    0.7878    0.0856   -0.0648 S   0  0  0  0  0  0  0  0  0  0  0  0
    5.2713    0.0418   -0.0328 N   0  0  0  0  0  0  0  0  0  0  0  0
    2.8509   -2.3920   -0.0391 N   0  0  0  0  0  0  0  0  0  0  0  0
    5.0823   -2.3485   -0.0315 N   0  0  0  0  0  0  0  0  0  0  0  0
    3.2301    1.2958    0.0334 N   0  0  0  0  0  0  0  0  0  0  0  0
    5.2887    2.3073    0.1408 N   0  0  0  0  0  0  0  0  0  0  0  0
    3.2087   -1.0699   -0.0434 C   0  0  0  0  0  0  0  0  0  0  0  0
    4.5723   -1.0941   -0.0418 C   0  0  0  0  0  0  0  0  0  0  0  0
    2.4581    0.1483   -0.0285 C   0  0  0  0  0  0  0  0  0  0  0  0
    4.5261    1.1861    0.0404 C   0  0  0  0  0  0  0  0  0  0  0  0
    4.0139   -3.1216   -0.0308 C   0  0  0  0  0  0  0  0  0  0  0  0
  1  9  2  0  0  0  0
  2  8  1  0  0  0  0
  2 10  1  0  0  0  0
  3  7  1  0  0  0  0
  3 11  1  0  0  0  0
  4  8  1  0  0  0  0
  4 11  2  0  0  0  0
  5  9  1  0  0  0  0
  5 10  2  0  0  0  0
  6 10  1  0  0  0  0
  7  8  2  0  0  0  0
  7  9  1  0  0  0  0
M  END
