775
 OpenBabel10141417513D

 30 31  0  0  1  0  0  0  0  0999 V2000
   -6.2016   -4.3844   -2.3147 S   0  0  0  0  0  0  0  0  0  0  0  0
    0.2061   -1.9562   -4.9425 O   0  0  0  0  0  0  0  0  0  0  0  0
   -5.9143   -5.4316   -3.2886 O   0  0  0  0  0  0  0  0  0  0  0  0
   -6.9096   -3.2368   -2.7363 O   0  0  0  0  0  0  0  0  0  0  0  0
   -5.2644   -1.3265   -2.8632 O   0  0  0  0  0  0  0  0  0  0  0  0
   -5.0977   -0.2261   -0.9145 O   0  0  0  0  0  0  0  0  0  0  0  0
   -3.1976   -9.0568   -3.7520 N   0  0  0  0  0  0  0  0  0  0  0  0
   -4.7167   -3.8330   -1.7276 N   0  0  0  0  0  0  0  0  0  0  0  0
   -2.2200   -6.2443   -3.7861 C   0  0  0  0  0  0  0  0  0  0  0  0
   -1.8198   -7.2613   -2.6990 C   0  0  0  0  0  0  0  0  0  0  0  0
   -3.4284   -6.7380   -4.5780 C   0  0  0  0  0  0  0  0  0  0  0  0
   -1.0263   -5.7826   -4.6522 C   0  0  0  0  0  0  0  0  0  0  0  0
   -1.9197   -8.7245   -3.1308 C   0  0  0  0  0  0  0  0  0  0  0  0
   -3.4499   -8.2166   -4.9212 C   0  0  0  0  0  0  0  0  0  0  0  0
   -1.3841   -4.6633   -5.6571 C   0  0  0  0  0  0  0  0  0  0  0  0
   -0.1954   -3.9769   -6.3516 C   0  0  0  0  0  0  0  0  0  0  0  0
    0.7724   -3.1653   -5.4775 C   0  0  0  0  0  0  0  0  0  0  0  0
   -4.6044   -2.5930   -0.8851 C   0  0  1  0  0  0  0  0  0  0  0  0
   -3.1366   -2.3760   -0.3794 C   0  0  0  0  0  0  0  0  0  0  0  0
   -7.0575   -5.0882   -0.9329 C   0  0  0  0  0  0  0  0  0  0  0  0
   -0.4292   -2.0151   -3.7336 C   0  0  0  0  0  0  0  0  0  0  0  0
   -6.2860   -6.1334   -0.1461 C   0  0  0  0  0  0  0  0  0  0  0  0
   -2.1073   -2.1913   -1.4714 C   0  0  0  0  0  0  0  0  0  0  0  0
   -5.8467   -7.3292   -0.9915 C   0  0  0  0  0  0  0  0  0  0  0  0
   -0.3786   -3.1022   -2.8732 C   0  0  0  0  0  0  0  0  0  0  0  0
   -1.1857   -0.9158   -3.3397 C   0  0  0  0  0  0  0  0  0  0  0  0
   -1.2435   -3.2288   -1.7906 C   0  0  0  0  0  0  0  0  0  0  0  0
   -1.9934   -0.9935   -2.1941 C   0  0  0  0  0  0  0  0  0  0  0  0
   -5.0450   -1.2907   -1.5358 C   0  0  0  0  0  0  0  0  0  0  0  0
   -5.1288   -8.3840   -0.1719 C   0  0  0  0  0  0  0  0  0  0  0  0
  1  3  2  0  0  0  0
  1  4  2  0  0  0  0
  1  8  1  0  0  0  0
  1 20  1  0  0  0  0
  2 17  1  0  0  0  0
  2 21  1  0  0  0  0
  5 29  1  0  0  0  0
  6 29  2  0  0  0  0
  7 13  1  0  0  0  0
  7 14  1  0  0  0  0
  9 10  1  0  0  0  0
  9 11  1  0  0  0  0
  9 12  1  0  0  0  0
 10 13  1  0  0  0  0
 11 14  1  0  0  0  0
 12 15  1  0  0  0  0
 15 16  1  0  0  0  0
 16 17  1  0  0  0  0
 18  8  1  6  0  0  0
 18 19  1  0  0  0  0
 18 29  1  0  0  0  0
 19 23  1  0  0  0  0
 20 22  1  0  0  0  0
 21 25  2  0  0  0  0
 21 26  1  0  0  0  0
 22 24  1  0  0  0  0
 23 27  2  0  0  0  0
 23 28  1  0  0  0  0
 24 30  1  0  0  0  0
 25 27  1  0  0  0  0
 26 28  2  0  0  0  0
M  END
