697
 OpenBabel10141417483D

 16 18  0  0  0  0  0  0  0  0999 V2000
   -0.7942   -3.4386   -2.6570 Cl  0  0  0  0  0  0  0  0  0  0  0  0
    4.3661    0.3439   -3.2132 S   0  0  0  0  0  0  0  0  0  0  0  0
   -0.0913   -2.1543    1.0691 N   0  0  0  0  0  0  0  0  0  0  0  0
    0.9462   -1.5346   -0.8620 N   0  0  0  0  0  0  0  0  0  0  0  0
    1.0954   -3.7783   -0.0086 N   0  0  0  0  0  0  0  0  0  0  0  0
    3.2242   -0.1694   -2.1210 N   0  0  0  0  0  0  0  0  0  0  0  0
    3.9327   -0.5339   -4.5536 N   0  0  0  0  0  0  0  0  0  0  0  0
   -0.5759   -3.3763    1.6775 C   0  0  0  0  0  0  0  0  0  0  0  0
    0.4957   -4.3682    1.2209 C   0  0  0  0  0  0  0  0  0  0  0  0
    0.7030   -2.5323    0.0254 C   0  0  0  0  0  0  0  0  0  0  0  0
    1.3562   -1.7744   -2.1906 C   0  0  0  0  0  0  0  0  0  0  0  0
    2.4601   -1.0744   -2.7631 C   0  0  0  0  0  0  0  0  0  0  0  0
    2.8785   -1.2818   -4.1956 C   0  0  0  0  0  0  0  0  0  0  0  0
    0.6885   -2.6391   -3.1031 C   0  0  0  0  0  0  0  0  0  0  0  0
    2.1864   -2.1781   -5.0375 C   0  0  0  0  0  0  0  0  0  0  0  0
    1.0919   -2.8342   -4.4534 C   0  0  0  0  0  0  0  0  0  0  0  0
  1 14  1  0  0  0  0
  2  6  1  0  0  0  0
  2  7  1  0  0  0  0
  3  8  1  0  0  0  0
  3 10  1  0  0  0  0
  4 10  1  0  0  0  0
  4 11  1  0  0  0  0
  5  9  1  0  0  0  0
  5 10  2  0  0  0  0
  6 12  2  0  0  0  0
  7 13  2  0  0  0  0
  8  9  1  0  0  0  0
 11 12  1  0  0  0  0
 11 14  2  0  0  0  0
 12 13  1  0  0  0  0
 13 15  1  0  0  0  0
 14 16  1  0  0  0  0
 15 16  2  0  0  0  0
M  END
