1056
 OpenBabel10141417523D

 14 14  0  0  1  0  0  0  0  0999 V2000
    4.5327    0.2672   -2.5454 O   0  0  0  0  0  0  0  0  0  0  0  0
    2.2207    0.0476   -2.3623 N   0  0  0  0  0  0  0  0  0  0  0  0
    2.5371   -2.1264   -0.7780 N   0  0  0  0  0  0  0  0  0  0  0  0
    1.8463    1.3126   -2.8560 C   0  0  0  0  0  0  0  0  0  0  0  0
    0.8790    1.3647   -3.8838 C   0  0  0  0  0  0  0  0  0  0  0  0
    2.3883    2.5064   -2.3321 C   0  0  0  0  0  0  0  0  0  0  0  0
    3.6532   -1.8168   -1.6999 C   0  0  3  0  0  0  0  0  0  0  0  0
    3.5323   -0.3735   -2.2219 C   0  0  0  0  0  0  0  0  0  0  0  0
    0.5274    2.6080   -4.4311 C   0  0  0  0  0  0  0  0  0  0  0  0
    2.0215    3.7319   -2.9116 C   0  0  0  0  0  0  0  0  0  0  0  0
    0.2531    0.1221   -4.4585 C   0  0  0  0  0  0  0  0  0  0  0  0
    3.3330    2.5549   -1.1600 C   0  0  0  0  0  0  0  0  0  0  0  0
    1.1051    3.7820   -3.9573 C   0  0  0  0  0  0  0  0  0  0  0  0
    3.6274   -2.7995   -2.8616 C   0  0  0  0  0  0  0  0  0  0  0  0
  1  8  2  0  0  0  0
  2  4  1  0  0  0  0
  2  8  1  0  0  0  0
  3  7  1  0  0  0  0
  4  5  2  0  0  0  0
  4  6  1  0  0  0  0
  5  9  1  0  0  0  0
  5 11  1  0  0  0  0
  6 10  2  0  0  0  0
  6 12  1  0  0  0  0
  7  8  1  0  0  0  0
  7 14  1  0  0  0  0
  9 13  2  0  0  0  0
 10 13  1  0  0  0  0
M  END
