797
 OpenBabel10141417483D

 12 13  0  0  0  0  0  0  0  0999 V2000
   -0.0804    0.6080    1.1943 N   0  0  0  0  0  0  0  0  0  0  0  0
    0.3987   -0.3704   -0.8155 N   0  0  0  0  0  0  0  0  0  0  0  0
    0.6814    0.5711    0.0489 C   0  0  0  0  0  0  0  0  0  0  0  0
   -1.2157   -0.2598    0.9850 C   0  0  0  0  0  0  0  0  0  0  0  0
    1.7804    1.5752   -0.2101 C   0  0  0  0  0  0  0  0  0  0  0  0
   -0.7179   -1.1246   -0.1773 C   0  0  0  0  0  0  0  0  0  0  0  0
    1.2816    3.0000   -0.2598 C   0  0  0  0  0  0  0  0  0  0  0  0
    1.7541    3.9537    0.6525 C   0  0  0  0  0  0  0  0  0  0  0  0
    0.3616    3.3966   -1.2410 C   0  0  0  0  0  0  0  0  0  0  0  0
    1.3138    5.2768    0.5848 C   0  0  0  0  0  0  0  0  0  0  0  0
   -0.0788    4.7194   -1.3055 C   0  0  0  0  0  0  0  0  0  0  0  0
    0.3983    5.6593   -0.3939 C   0  0  0  0  0  0  0  0  0  0  0  0
  1  3  1  0  0  0  0
  1  4  1  0  0  0  0
  2  3  2  0  0  0  0
  2  6  1  0  0  0  0
  3  5  1  0  0  0  0
  4  6  1  0  0  0  0
  5  7  1  0  0  0  0
  7  8  2  0  0  0  0
  7  9  1  0  0  0  0
  8 10  1  0  0  0  0
  9 11  2  0  0  0  0
 10 12  2  0  0  0  0
 11 12  1  0  0  0  0
M  END
