500
 OpenBabel10141417483D

 19 20  0  0  0  0  0  0  0  0999 V2000
    3.1073    1.1478    0.5106 O   0  0  0  0  0  0  0  0  0  0  0  0
    6.6630   -4.0031   -1.1581 O   0  0  0  0  0  0  0  0  0  0  0  0
    6.4599   -5.7757    0.2345 O   0  0  0  0  0  0  0  0  0  0  0  0
    4.2357   -1.5626    0.9605 N   0  0  0  0  0  0  0  0  0  0  0  0
    4.6001   -2.8543    0.5987 C   0  0  0  0  0  0  0  0  0  0  0  0
    3.0628   -1.1930    0.2901 C   0  0  0  0  0  0  0  0  0  0  0  0
    3.5963   -3.3455   -0.2065 C   0  0  0  0  0  0  0  0  0  0  0  0
    2.6804   -2.3047   -0.4408 C   0  0  0  0  0  0  0  0  0  0  0  0
    5.8440   -3.5715    1.0677 C   0  0  0  0  0  0  0  0  0  0  0  0
    2.4433    0.1422    0.3050 C   0  0  0  0  0  0  0  0  0  0  0  0
    4.9452   -0.7670    1.9482 C   0  0  0  0  0  0  0  0  0  0  0  0
    0.9636    0.3330    0.0134 C   0  0  0  0  0  0  0  0  0  0  0  0
   -0.0117   -0.6508    0.2251 C   0  0  0  0  0  0  0  0  0  0  0  0
    0.5336    1.5917   -0.4420 C   0  0  0  0  0  0  0  0  0  0  0  0
   -1.7786    0.8408   -0.5698 C   0  0  0  0  0  0  0  0  0  0  0  0
   -1.3640   -0.4051   -0.0832 C   0  0  0  0  0  0  0  0  0  0  0  0
   -0.8207    1.8467   -0.7176 C   0  0  0  0  0  0  0  0  0  0  0  0
    6.3368   -4.5643    0.0323 C   0  0  0  0  0  0  0  0  0  0  0  0
   -3.2299    1.1092   -0.8613 C   0  0  0  0  0  0  0  0  0  0  0  0
  1 10  2  0  0  0  0
  2 18  1  0  0  0  0
  3 18  2  0  0  0  0
  4  5  1  0  0  0  0
  4  6  1  0  0  0  0
  4 11  1  0  0  0  0
  5  7  2  0  0  0  0
  5  9  1  0  0  0  0
  6  8  2  0  0  0  0
  6 10  1  0  0  0  0
  7  8  1  0  0  0  0
  9 18  1  0  0  0  0
 10 12  1  0  0  0  0
 12 13  2  0  0  0  0
 12 14  1  0  0  0  0
 13 16  1  0  0  0  0
 14 17  2  0  0  0  0
 15 16  2  0  0  0  0
 15 17  1  0  0  0  0
 15 19  1  0  0  0  0
M  END
