525
 OpenBabel10141417523D

 22 24  0  0  0  0  0  0  0  0999 V2000
    2.2728    0.0748    1.7084 S   0  0  0  0  0  0  0  0  0  0  0  0
    4.4755   -0.2077    0.2201 O   0  0  0  0  0  0  0  0  0  0  0  0
    3.4560    1.9002    0.0083 N   0  0  0  0  0  0  0  0  0  0  0  0
    6.0560   -3.5171    0.7249 C   0  0  0  0  0  0  0  0  0  0  0  0
    5.0521   -4.3735    0.2164 C   0  0  0  0  0  0  0  0  0  0  0  0
    4.1861    2.1519   -1.2087 C   0  0  0  0  0  0  0  0  0  0  0  0
    4.6138   -1.6228    0.2846 C   0  0  0  0  0  0  0  0  0  0  0  0
    5.8229   -2.1305    0.7592 C   0  0  0  0  0  0  0  0  0  0  0  0
    4.2818    1.1706   -2.2108 C   0  0  0  0  0  0  0  0  0  0  0  0
    4.9949    1.3953   -3.3996 C   0  0  0  0  0  0  0  0  0  0  0  0
    3.8484   -3.8283   -0.2626 C   0  0  0  0  0  0  0  0  0  0  0  0
    3.6337   -2.4514   -0.2477 C   0  0  0  0  0  0  0  0  0  0  0  0
    7.2690   -4.0755    1.1683 C   0  0  0  0  0  0  0  0  0  0  0  0
    4.7818    3.3964   -1.4554 C   0  0  0  0  0  0  0  0  0  0  0  0
    5.2777   -5.7593    0.1793 C   0  0  0  0  0  0  0  0  0  0  0  0
    3.3854    0.6162    0.5761 C   0  0  0  0  0  0  0  0  0  0  0  0
    5.5852    2.6422   -3.6113 C   0  0  0  0  0  0  0  0  0  0  0  0
    5.4815    3.6368   -2.6421 C   0  0  0  0  0  0  0  0  0  0  0  0
    2.8478    3.0600    0.6691 C   0  0  0  0  0  0  0  0  0  0  0  0
    7.4822   -5.4560    1.1113 C   0  0  0  0  0  0  0  0  0  0  0  0
    6.4870   -6.2959    0.6223 C   0  0  0  0  0  0  0  0  0  0  0  0
    5.0719    0.3271   -4.4507 C   0  0  0  0  0  0  0  0  0  0  0  0
  1 16  2  0  0  0  0
  2  7  1  0  0  0  0
  2 16  1  0  0  0  0
  3  6  1  0  0  0  0
  3 16  1  0  0  0  0
  3 19  1  0  0  0  0
  4  5  1  0  0  0  0
  4  8  1  0  0  0  0
  4 13  2  0  0  0  0
  5 11  1  0  0  0  0
  5 15  2  0  0  0  0
  6  9  1  0  0  0  0
  6 14  2  0  0  0  0
  7  8  2  0  0  0  0
  7 12  1  0  0  0  0
  9 10  2  0  0  0  0
 10 17  1  0  0  0  0
 10 22  1  0  0  0  0
 11 12  2  0  0  0  0
 13 20  1  0  0  0  0
 14 18  1  0  0  0  0
 15 21  1  0  0  0  0
 17 18  2  0  0  0  0
 20 21  2  0  0  0  0
M  END
