
 OpenBabel10141417503D

 24 25  0  0  0  0  0  0  0  0999 V2000
    8.7953    1.2501    2.8684 C   0  0  0  0  0  0  0  0  0  0  0  0
    9.0126    0.7048    4.1301 C   0  0  0  0  0  0  0  0  0  0  0  0
    8.2772   -0.4014    4.5466 C   0  0  0  0  0  0  0  0  0  0  0  0
    7.2968   -0.9525    3.6855 C   0  0  0  0  0  0  0  0  0  0  0  0
    7.0628   -0.4307    2.3996 C   0  0  0  0  0  0  0  0  0  0  0  0
    7.8255    0.6872    2.0229 C   0  0  0  0  0  0  0  0  0  0  0  0
    5.9916   -1.0547    1.4775 C   0  0  2  0  0  0  0  0  0  0  0  0
    4.5486   -0.6470    1.9439 C   0  0  0  0  0  0  0  0  0  0  0  0
    3.4404   -0.9532    0.8941 C   0  0  0  0  0  0  0  0  0  0  0  0
    2.0495   -0.5912    1.2879 N   0  0  0  0  0  0  0  0  0  0  0  0
    1.8435    0.8620    1.5367 C   0  0  0  0  0  0  0  0  0  0  0  0
    2.0262    1.8018    0.3371 C   0  0  0  0  0  0  0  0  0  0  0  0
    0.5076    1.2008    2.2287 C   0  0  0  0  0  0  0  0  0  0  0  0
    1.0071   -1.2478    0.4514 C   0  0  0  0  0  0  0  0  0  0  0  0
    1.0658   -0.9799   -1.0598 C   0  0  0  0  0  0  0  0  0  0  0  0
    0.9415   -2.7751    0.6855 C   0  0  0  0  0  0  0  0  0  0  0  0
    8.4907   -0.9764    5.9194 C   0  0  0  0  0  0  0  0  0  0  0  0
    7.6668    1.3140    0.8234 O   0  0  0  0  0  0  0  0  0  0  0  0
    6.1660   -2.5624    1.2235 C   0  0  0  0  0  0  0  0  0  0  0  0
    7.0444   -3.0099    0.2131 C   0  0  0  0  0  0  0  0  0  0  0  0
    7.1509   -4.3741   -0.0897 C   0  0  0  0  0  0  0  0  0  0  0  0
    6.3922   -5.3144    0.5906 C   0  0  0  0  0  0  0  0  0  0  0  0
    5.5240   -4.8965    1.6004 C   0  0  0  0  0  0  0  0  0  0  0  0
    5.4352   -3.5380    1.9190 C   0  0  0  0  0  0  0  0  0  0  0  0
  1  2  2  0  0  0  0
  1  6  1  0  0  0  0
  2  3  1  0  0  0  0
  3  4  2  0  0  0  0
  3 17  1  0  0  0  0
  4  5  1  0  0  0  0
  5  6  2  0  0  0  0
  6 18  1  0  0  0  0
  7 19  1  1  0  0  0
  7  8  1  0  0  0  0
  7  5  1  0  0  0  0
  8  9  1  0  0  0  0
  9 10  1  0  0  0  0
 10 11  1  0  0  0  0
 10 14  1  0  0  0  0
 11 12  1  0  0  0  0
 11 13  1  0  0  0  0
 14 15  1  0  0  0  0
 14 16  1  0  0  0  0
 19 20  2  0  0  0  0
 19 24  1  0  0  0  0
 20 21  1  0  0  0  0
 21 22  2  0  0  0  0
 22 23  1  0  0  0  0
 23 24  2  0  0  0  0
M  END
