
 OpenBabel10141417543D

 32 35  0  0  1  0  0  0  0  0999 V2000
    3.4214   -4.7804    3.1562 Cl  0  0  0  0  0  0  0  0  0  0  0  0
    9.1822   -3.4396    2.4648 O   0  0  0  0  0  0  0  0  0  0  0  0
    8.8764    0.4570    0.5503 O   0  0  0  0  0  0  0  0  0  0  0  0
    5.8565    4.0537    5.8295 O   0  0  0  0  0  0  0  0  0  0  0  0
    7.6216   -1.4594    0.6575 N   0  0  0  0  0  0  0  0  0  0  0  0
    5.6404    1.7494    6.0671 N   0  0  0  0  0  0  0  0  0  0  0  0
    8.9447   -4.2481    0.1717 C   0  0  0  0  0  0  0  0  0  0  0  0
    9.3524   -2.9023   -0.4306 C   0  0  0  0  0  0  0  0  0  0  0  0
    8.3397   -4.1697    1.5759 C   0  0  2  0  0  0  0  0  0  0  0  0
    8.1718   -1.9567   -0.6095 C   0  0  0  0  0  0  0  0  0  0  0  0
    6.9365   -3.5951    1.6277 C   0  0  0  0  0  0  0  0  0  0  0  0
    6.6228   -2.2814    1.2190 C   0  0  0  0  0  0  0  0  0  0  0  0
    8.0341   -0.2043    1.1610 C   0  0  0  0  0  0  0  0  0  0  0  0
    5.9179   -4.3579    2.2245 C   0  0  0  0  0  0  0  0  0  0  0  0
    5.3343   -1.7568    1.4028 C   0  0  0  0  0  0  0  0  0  0  0  0
    7.4849    0.3570    2.4649 C   0  0  0  0  0  0  0  0  0  0  0  0
    4.6408   -3.8243    2.4105 C   0  0  0  0  0  0  0  0  0  0  0  0
    4.3473   -2.5244    2.0124 C   0  0  0  0  0  0  0  0  0  0  0  0
    7.3201    1.7388    2.6799 C   0  0  0  0  0  0  0  0  0  0  0  0
    7.1300   -0.4992    3.5281 C   0  0  0  0  0  0  0  0  0  0  0  0
    6.7356    2.1839    3.8906 C   0  0  0  0  0  0  0  0  0  0  0  0
    6.2786    1.3181    4.8797 C   0  0  0  0  0  0  0  0  0  0  0  0
    6.4752   -0.0425    4.6846 C   0  0  0  0  0  0  0  0  0  0  0  0
    7.6902    2.8545    1.7387 C   0  0  0  0  0  0  0  0  0  0  0  0
    5.4781    3.0779    6.4515 C   0  0  0  0  0  0  0  0  0  0  0  0
    4.7994    3.3202    7.7575 C   0  0  0  0  0  0  0  0  0  0  0  0
    3.9713    4.4538    7.9260 C   0  0  0  0  0  0  0  0  0  0  0  0
    5.0804    2.4877    8.8520 C   0  0  0  0  0  0  0  0  0  0  0  0
    3.4641    4.7371    9.2044 C   0  0  0  0  0  0  0  0  0  0  0  0
    3.6439    5.3957    6.7967 C   0  0  0  0  0  0  0  0  0  0  0  0
    4.5492    2.7780   10.1097 C   0  0  0  0  0  0  0  0  0  0  0  0
    3.7504    3.9050   10.2857 C   0  0  0  0  0  0  0  0  0  0  0  0
  1 17  1  0  0  0  0
  3 13  2  0  0  0  0
  4 25  2  0  0  0  0
  5 10  1  0  0  0  0
  5 12  1  0  0  0  0
  5 13  1  0  0  0  0
  6 22  1  0  0  0  0
  6 25  1  0  0  0  0
  7  8  1  0  0  0  0
  7  9  1  0  0  0  0
  8 10  1  0  0  0  0
  9  2  1  1  0  0  0
  9 11  1  0  0  0  0
 11 12  2  0  0  0  0
 11 14  1  0  0  0  0
 12 15  1  0  0  0  0
 13 16  1  0  0  0  0
 14 17  2  0  0  0  0
 15 18  2  0  0  0  0
 16 19  2  0  0  0  0
 16 20  1  0  0  0  0
 17 18  1  0  0  0  0
 19 21  1  0  0  0  0
 19 24  1  0  0  0  0
 20 23  2  0  0  0  0
 21 22  2  0  0  0  0
 22 23  1  0  0  0  0
 25 26  1  0  0  0  0
 26 27  1  0  0  0  0
 26 28  2  0  0  0  0
 27 29  2  0  0  0  0
 27 30  1  0  0  0  0
 28 31  1  0  0  0  0
 29 32  1  0  0  0  0
 31 32  2  0  0  0  0
M  END
