539
 OpenBabel10141418343D

 29 31  0  0  0  0  0  0  0  0999 V2000
    0.3339    1.6415   -0.0609 Cl  0  0  0  0  0  0  0  0  0  0  0  0
   10.7161    1.3163    0.3292 O   0  0  0  0  0  0  0  0  0  0  0  0
   13.5260    1.7096    2.8024 N   0  0  0  0  0  0  0  0  0  0  0  0
    5.1590    0.4079   -0.2562 C   0  0  0  0  0  0  0  0  0  0  0  0
    4.3416    1.2647   -0.9272 C   0  0  0  0  0  0  0  0  0  0  0  0
    6.6106    0.6891   -0.1161 C   0  0  0  0  0  0  0  0  0  0  0  0
    2.8278    1.1094   -1.0281 C   0  0  0  0  0  0  0  0  0  0  0  0
    4.6082   -0.8144    0.3940 C   0  0  0  0  0  0  0  0  0  0  0  0
    4.8576    2.4325   -1.6946 C   0  0  0  0  0  0  0  0  0  0  0  0
    7.5347    0.2387   -1.0614 C   0  0  0  0  0  0  0  0  0  0  0  0
    7.0717    1.3629    1.0227 C   0  0  0  0  0  0  0  0  0  0  0  0
    2.0968    1.8652    0.0823 C   0  0  0  0  0  0  0  0  0  0  0  0
    9.3599    1.1348    0.2699 C   0  0  0  0  0  0  0  0  0  0  0  0
    8.8999    0.4740   -0.8720 C   0  0  0  0  0  0  0  0  0  0  0  0
    8.4390    1.5868    1.2150 C   0  0  0  0  0  0  0  0  0  0  0  0
    4.1537   -0.7818    1.7182 C   0  0  0  0  0  0  0  0  0  0  0  0
    4.6135   -2.0378   -0.2916 C   0  0  0  0  0  0  0  0  0  0  0  0
    5.0442    3.6803   -1.0862 C   0  0  0  0  0  0  0  0  0  0  0  0
    5.1454    2.3028   -3.0622 C   0  0  0  0  0  0  0  0  0  0  0  0
   12.7988    1.6329    1.5171 C   0  0  0  0  0  0  0  0  0  0  0  0
   11.2776    1.4192    1.6430 C   0  0  0  0  0  0  0  0  0  0  0  0
    3.7097   -1.9498    2.3445 C   0  0  0  0  0  0  0  0  0  0  0  0
    4.1718   -3.2059    0.3373 C   0  0  0  0  0  0  0  0  0  0  0  0
    5.5074    4.7736   -1.8328 C   0  0  0  0  0  0  0  0  0  0  0  0
    5.6121    3.3929   -3.8053 C   0  0  0  0  0  0  0  0  0  0  0  0
    3.7215   -3.1612    1.6555 C   0  0  0  0  0  0  0  0  0  0  0  0
    5.7928    4.6279   -3.1894 C   0  0  0  0  0  0  0  0  0  0  0  0
   14.9595    1.9003    2.5546 C   0  0  0  0  0  0  0  0  0  0  0  0
   13.0350    2.7887    3.6608 C   0  0  0  0  0  0  0  0  0  0  0  0
  1 12  1  0  0  0  0
  2 13  1  0  0  0  0
  2 21  1  0  0  0  0
  3 20  1  0  0  0  0
  3 28  1  0  0  0  0
  3 29  1  0  0  0  0
  4  5  2  0  0  0  0
  4  6  1  0  0  0  0
  4  8  1  0  0  0  0
  5  7  1  0  0  0  0
  5  9  1  0  0  0  0
  6 10  2  0  0  0  0
  6 11  1  0  0  0  0
  7 12  1  0  0  0  0
  8 16  2  0  0  0  0
  8 17  1  0  0  0  0
  9 18  2  0  0  0  0
  9 19  1  0  0  0  0
 10 14  1  0  0  0  0
 11 15  2  0  0  0  0
 13 14  2  0  0  0  0
 13 15  1  0  0  0  0
 16 22  1  0  0  0  0
 17 23  2  0  0  0  0
 18 24  1  0  0  0  0
 19 25  2  0  0  0  0
 20 21  1  0  0  0  0
 22 26  2  0  0  0  0
 23 26  1  0  0  0  0
 24 27  2  0  0  0  0
 25 27  1  0  0  0  0
M  END
