
 OpenBabel10141417513D

 37 41  0  0  0  0  0  0  0  0999 V2000
    0.2539   -0.9498   -0.2661 C   0  0  0  0  0  0  0  0  0  0  0  0
    1.4731   -1.4394   -0.5763 C   0  0  0  0  0  0  0  0  0  0  0  0
    2.6552   -0.7576    0.0314 C   0  0  0  0  0  0  0  0  0  0  0  0
    2.4130    0.4227    0.7282 N   0  0  0  0  0  0  0  0  0  0  0  0
    1.2127    1.1414    0.6108 C   0  0  0  0  0  0  0  0  0  0  0  0
    0.1670    0.4599    0.0729 C   0  0  0  0  0  0  0  0  0  0  0  0
   -1.0643    1.1280   -0.4352 C   0  0  0  0  0  0  0  0  0  0  0  0
   -2.2199    0.3724   -0.2982 N   0  0  0  0  0  0  0  0  0  0  0  0
   -2.2044   -1.0145   -0.1432 C   0  0  0  0  0  0  0  0  0  0  0  0
   -0.9576   -1.6564   -0.3470 N   0  0  0  0  0  0  0  0  0  0  0  0
   -3.4949    1.0703   -0.4124 C   0  0  0  0  0  0  0  0  0  0  0  0
   -1.0230    2.2112   -1.0149 O   0  0  0  0  0  0  0  0  0  0  0  0
   -3.2287   -1.6471    0.1370 O   0  0  0  0  0  0  0  0  0  0  0  0
    3.7711   -1.2694   -0.0584 O   0  0  0  0  0  0  0  0  0  0  0  0
    3.5286    0.9254    1.5191 C   0  0  0  0  0  0  0  0  0  0  0  0
    1.2520    2.4898    0.9399 N   0  0  0  0  0  0  0  0  0  0  0  0
    0.2627    3.3990    1.3546 C   0  0  0  0  0  0  0  0  0  0  0  0
    0.4034    4.7455    0.9751 C   0  0  0  0  0  0  0  0  0  0  0  0
   -0.5838    5.6909    1.2724 C   0  0  0  0  0  0  0  0  0  0  0  0
   -1.7285    5.2993    1.9623 C   0  0  0  0  0  0  0  0  0  0  0  0
   -1.8847    3.9774    2.3679 C   0  0  0  0  0  0  0  0  0  0  0  0
   -0.8970    3.0430    2.0569 C   0  0  0  0  0  0  0  0  0  0  0  0
   -1.0869    1.7747    2.4532 F   0  0  0  0  0  0  0  0  0  0  0  0
   -3.2206    6.6884    2.3586 I   0  0  0  0  0  0  0  0  0  0  0  0
    1.8151   -2.6297   -1.4217 C   0  0  0  0  0  0  0  0  0  0  0  0
   -1.0166   -3.0937   -0.2538 C   0  0  0  0  0  0  0  0  0  0  0  0
   -0.2632   -3.7597    0.7181 C   0  0  0  0  0  0  0  0  0  0  0  0
   -0.2987   -5.1488    0.8445 C   0  0  0  0  0  0  0  0  0  0  0  0
   -1.1351   -5.8800   -0.0054 C   0  0  0  0  0  0  0  0  0  0  0  0
   -1.9081   -5.2260   -0.9721 C   0  0  0  0  0  0  0  0  0  0  0  0
   -1.8505   -3.8371   -1.0946 C   0  0  0  0  0  0  0  0  0  0  0  0
    0.4805   -5.8473    1.7941 N   0  0  0  0  0  0  0  0  0  0  0  0
    1.3668   -5.2700    2.6995 C   0  0  0  0  0  0  0  0  0  0  0  0
    2.0405   -6.2771    3.5828 C   0  0  0  0  0  0  0  0  0  0  0  0
    1.6239   -4.0740    2.8330 O   0  0  0  0  0  0  0  0  0  0  0  0
   -4.0489    1.4404   -1.7700 C   0  0  0  0  0  0  0  0  0  0  0  0
   -4.7700    0.4404   -0.9258 C   0  0  0  0  0  0  0  0  0  0  0  0
  1  2  2  0  0  0  0
  1  6  1  0  0  0  0
  1 10  1  0  0  0  0
  2  3  1  0  0  0  0
  2 25  1  0  0  0  0
  3  4  1  0  0  0  0
  3 14  2  0  0  0  0
  4  5  1  0  0  0  0
  4 15  1  0  0  0  0
  5  6  2  0  0  0  0
  5 16  1  0  0  0  0
  6  7  1  0  0  0  0
  7  8  1  0  0  0  0
  7 12  2  0  0  0  0
  8  9  1  0  0  0  0
  8 11  1  0  0  0  0
  9 10  1  0  0  0  0
  9 13  2  0  0  0  0
 10 26  1  0  0  0  0
 11 36  1  0  0  0  0
 16 17  1  0  0  0  0
 17 18  2  0  0  0  0
 17 22  1  0  0  0  0
 18 19  1  0  0  0  0
 19 20  2  0  0  0  0
 20 21  1  0  0  0  0
 20 24  1  0  0  0  0
 21 22  2  0  0  0  0
 22 23  1  0  0  0  0
 26 27  2  0  0  0  0
 26 31  1  0  0  0  0
 27 28  1  0  0  0  0
 28 29  2  0  0  0  0
 28 32  1  0  0  0  0
 29 30  1  0  0  0  0
 30 31  2  0  0  0  0
 32 33  1  0  0  0  0
 33 34  1  0  0  0  0
 33 35  2  0  0  0  0
 36 37  1  0  0  0  0
 37 11  1  0  0  0  0
M  END
