
 OpenBabel10141417503D

 11 11  0  0  0  0  0  0  0  0999 V2000
    0.7014    1.2662   -0.3022 C   0  0  0  0  0  0  0  0  0  0  0  0
    1.4360    0.0400    0.2353 C   0  0  0  0  0  0  0  0  0  0  0  0
   -0.7292   -1.2490    0.2599 C   0  0  0  0  0  0  0  0  0  0  0  0
   -1.4666   -0.0236   -0.2745 C   0  0  0  0  0  0  0  0  0  0  0  0
   -0.7703    1.2848    0.1196 C   0  0  2  0  0  0  0  0  0  0  0  0
    0.7436   -1.2684   -0.1795 C   0  0  2  0  0  0  0  0  0  0  0  0
   -0.9581    3.6500   -0.1029 O   0  0  0  0  0  0  0  0  0  0  0  0
   -1.4790    2.4716   -0.4982 C   0  0  0  0  0  0  0  0  0  0  0  0
   -2.4386    2.4488   -1.2512 O   0  0  0  0  0  0  0  0  0  0  0  0
    1.4468   -2.5076    0.4022 C   0  0  0  0  0  0  0  0  0  0  0  0
    2.8300   -2.6126   -0.0491 N   0  0  0  0  0  0  0  0  0  0  0  0
  1  2  1  0  0  0  0
  2  6  1  0  0  0  0
  3  4  1  0  0  0  0
  5  1  1  0  0  0  0
  5  4  1  0  0  0  0
  5  8  1  6  0  0  0
  6  3  1  0  0  0  0
  6 10  1  1  0  0  0
  8  7  1  0  0  0  0
  8  9  2  0  0  0  0
 10 11  1  0  0  0  0
M  END
