287
 OpenBabel10141417513D

 35 36  0  0  1  0  0  0  0  0999 V2000
    1.3452   -4.7787   -5.6952 F   0  0  0  0  0  0  0  0  0  0  0  0
    0.4130   -5.2134   -3.7817 F   0  0  0  0  0  0  0  0  0  0  0  0
    2.1957   -6.3010   -4.3965 F   0  0  0  0  0  0  0  0  0  0  0  0
    8.4755    4.0777   -8.6830 O   0  0  0  0  0  0  0  0  0  0  0  0
    5.7478    4.5562   -6.3402 O   0  0  0  0  0  0  0  0  0  0  0  0
    3.7183   -1.4443   -7.3893 O   0  0  0  0  0  0  0  0  0  0  0  0
    4.0315   -0.7792   -4.4838 O   0  0  0  0  0  0  0  0  0  0  0  0
    6.6924    1.5054  -13.4357 O   0  0  0  0  0  0  0  0  0  0  0  0
    5.4120    0.2114  -14.8215 O   0  0  0  0  0  0  0  0  0  0  0  0
    7.2102    2.0163   -8.4278 C   0  0  2  0  0  0  0  0  0  0  0  0
    5.9223    2.6992   -7.9258 C   0  0  2  0  0  0  0  0  0  0  0  0
    8.3148    2.9178   -7.8766 C   0  0  2  0  0  0  0  0  0  0  0  0
    6.3029    3.2606   -6.5396 C   0  0  1  0  0  0  0  0  0  0  0  0
    7.8306    3.3127   -6.4868 C   0  0  0  0  0  0  0  0  0  0  0  0
    7.2260    1.8736   -9.9483 C   0  0  0  0  0  0  0  0  0  0  0  0
    4.7152    1.7876   -7.8444 C   0  0  0  0  0  0  0  0  0  0  0  0
    8.4578    1.1887  -10.4731 C   0  0  0  0  0  0  0  0  0  0  0  0
    4.6533    0.7027   -7.0502 C   0  0  0  0  0  0  0  0  0  0  0  0
    3.4423   -0.1565   -6.8469 C   0  0  2  0  0  0  0  0  0  0  0  0
    8.4803    0.0138  -11.1211 C   0  0  0  0  0  0  0  0  0  0  0  0
    7.2730   -0.8346  -11.4086 C   0  0  0  0  0  0  0  0  0  0  0  0
    3.0027   -0.2458   -5.3625 C   0  0  0  0  0  0  0  0  0  0  0  0
    7.3039   -1.5457  -12.7592 C   0  0  0  0  0  0  0  0  0  0  0  0
    7.5147   -0.6356  -13.9585 C   0  0  0  0  0  0  0  0  0  0  0  0
    3.6745   -1.9220   -3.8097 C   0  0  0  0  0  0  0  0  0  0  0  0
    6.3851    0.3764  -14.1291 C   0  0  0  0  0  0  0  0  0  0  0  0
    2.9243   -2.9200   -4.4258 C   0  0  0  0  0  0  0  0  0  0  0  0
    4.0899   -2.1067   -2.4855 C   0  0  0  0  0  0  0  0  0  0  0  0
    6.0253    2.7272  -13.7649 C   0  0  0  0  0  0  0  0  0  0  0  0
    2.4799   -4.0390   -3.7153 C   0  0  0  0  0  0  0  0  0  0  0  0
    3.6385   -3.2175   -1.7561 C   0  0  0  0  0  0  0  0  0  0  0  0
    2.8278   -4.1738   -2.3673 C   0  0  0  0  0  0  0  0  0  0  0  0
    5.1354    3.2223  -12.6302 C   0  0  0  0  0  0  0  0  0  0  0  0
    7.1515    3.7242  -14.0129 C   0  0  0  0  0  0  0  0  0  0  0  0
    1.6201   -5.0690   -4.3930 C   0  0  0  0  0  0  0  0  0  0  0  0
  1 35  1  0  0  0  0
  2 35  1  0  0  0  0
  3 35  1  0  0  0  0
  7 22  1  0  0  0  0
  7 25  1  0  0  0  0
  8 26  1  0  0  0  0
  8 29  1  0  0  0  0
  9 26  2  0  0  0  0
 10 11  1  0  0  0  0
 10 12  1  0  0  0  0
 10 15  1  6  0  0  0
 11 13  1  0  0  0  0
 11 16  1  1  0  0  0
 12  4  1  6  0  0  0
 12 14  1  0  0  0  0
 13 14  1  0  0  0  0
 13  5  1  6  0  0  0
 15 17  1  0  0  0  0
 16 18  2  0  0  0  0
 17 20  2  0  0  0  0
 19 22  1  1  0  0  0
 19 18  1  0  0  0  0
 19  6  1  0  0  0  0
 20 21  1  0  0  0  0
 21 23  1  0  0  0  0
 23 24  1  0  0  0  0
 24 26  1  0  0  0  0
 25 27  1  0  0  0  0
 25 28  2  0  0  0  0
 27 30  2  0  0  0  0
 28 31  1  0  0  0  0
 29 33  1  0  0  0  0
 29 34  1  0  0  0  0
 30 32  1  0  0  0  0
 30 35  1  0  0  0  0
 31 32  2  0  0  0  0
M  END
