656
 OpenBabel10141417493D

 26 29  0  0  0  0  0  0  0  0999 V2000
    5.4082    3.2486    4.3595 Cl  0  0  0  0  0  0  0  0  0  0  0  0
    4.7689   -5.9377   -0.3500 O   0  0  0  0  0  0  0  0  0  0  0  0
    7.1364   -3.4490    1.4115 N   0  0  0  0  0  0  0  0  0  0  0  0
    5.5690   -1.7959    3.3023 N   0  0  0  0  0  0  0  0  0  0  0  0
    7.0515   -5.5519   -0.8574 N   0  0  0  0  0  0  0  0  0  0  0  0
    6.5545   -7.0022    0.7224 N   0  0  0  0  0  0  0  0  0  0  0  0
    8.2457   -6.1235   -0.4542 N   0  0  0  0  0  0  0  0  0  0  0  0
    5.8195   -3.8727    1.9009 C   0  0  0  0  0  0  0  0  0  0  0  0
    7.8004   -2.8392    2.5763 C   0  0  0  0  0  0  0  0  0  0  0  0
    4.9023   -2.7971    2.4597 C   0  0  0  0  0  0  0  0  0  0  0  0
    7.0429   -1.6614    3.2262 C   0  0  0  0  0  0  0  0  0  0  0  0
    7.0772   -2.5463    0.2505 C   0  0  0  0  0  0  0  0  0  0  0  0
    6.3903   -3.1084   -1.0137 C   0  0  0  0  0  0  0  0  0  0  0  0
    7.0165   -4.3514   -1.6666 C   0  0  0  0  0  0  0  0  0  0  0  0
    4.8054   -0.6391    3.5536 C   0  0  0  0  0  0  0  0  0  0  0  0
    5.3949    0.6057    3.8229 C   0  0  0  0  0  0  0  0  0  0  0  0
    3.3953   -0.6768    3.5642 C   0  0  0  0  0  0  0  0  0  0  0  0
    5.9727   -6.1556   -0.1868 C   0  0  0  0  0  0  0  0  0  0  0  0
    7.8835   -6.9601    0.4644 C   0  0  0  0  0  0  0  0  0  0  0  0
    4.6238    1.7458    4.0582 C   0  0  0  0  0  0  0  0  0  0  0  0
    2.6194    0.4614    3.8032 C   0  0  0  0  0  0  0  0  0  0  0  0
    3.2373    1.6793    4.0509 C   0  0  0  0  0  0  0  0  0  0  0  0
    5.9885   -7.6744    1.7731 C   0  0  0  0  0  0  0  0  0  0  0  0
    8.7509   -7.8713    1.2458 C   0  0  0  0  0  0  0  0  0  0  0  0
    6.7655   -8.4587    2.5368 C   0  0  0  0  0  0  0  0  0  0  0  0
    8.1802   -8.5883    2.2292 C   0  0  0  0  0  0  0  0  0  0  0  0
  1 20  1  0  0  0  0
  2 18  2  0  0  0  0
  3  8  1  0  0  0  0
  3  9  1  0  0  0  0
  3 12  1  0  0  0  0
  4 10  1  0  0  0  0
  4 11  1  0  0  0  0
  4 15  1  0  0  0  0
  5  7  1  0  0  0  0
  5 14  1  0  0  0  0
  5 18  1  0  0  0  0
  6 18  1  0  0  0  0
  6 19  1  0  0  0  0
  6 23  1  0  0  0  0
  7 19  2  0  0  0  0
  8 10  1  0  0  0  0
  9 11  1  0  0  0  0
 12 13  1  0  0  0  0
 13 14  1  0  0  0  0
 15 16  2  0  0  0  0
 15 17  1  0  0  0  0
 16 20  1  0  0  0  0
 17 21  2  0  0  0  0
 19 24  1  0  0  0  0
 20 22  2  0  0  0  0
 21 22  1  0  0  0  0
 23 25  2  0  0  0  0
 24 26  2  0  0  0  0
 25 26  1  0  0  0  0
M  END
