
 OpenBabel10141419033D

 28 30  0  0  0  0  0  0  0  0999 V2000
   -0.9867    9.5163    2.3598 C   0  0  0  0  0  0  0  0  0  0  0  0
   -1.5979   10.6045    1.7167 C   0  0  0  0  0  0  0  0  0  0  0  0
   -1.6029   11.8649    2.3001 C   0  0  0  0  0  0  0  0  0  0  0  0
   -0.9629   12.0628    3.5165 C   0  0  0  0  0  0  0  0  0  0  0  0
   -0.2880   11.0100    4.1456 C   0  0  0  0  0  0  0  0  0  0  0  0
   -0.3041    9.7164    3.5750 C   0  0  0  0  0  0  0  0  0  0  0  0
    0.3337    8.5495    4.2987 C   0  0  0  0  0  0  0  0  0  0  0  0
    0.4916    7.2611    3.4585 C   0  0  2  0  0  0  0  0  0  0  0  0
   -0.7113    6.9764    2.5489 C   0  0  2  0  0  0  0  0  0  0  0  0
   -1.0212    8.1790    1.6678 C   0  0  0  0  0  0  0  0  0  0  0  0
   -1.7873    6.4815    3.5446 C   0  0  2  0  0  0  0  0  0  0  0  0
    0.5194    6.0054    4.3347 C   0  0  0  0  0  0  0  0  0  0  0  0
   -0.9515    5.5796    4.4869 C   0  0  1  0  0  0  0  0  0  0  0  0
    0.3596   11.1612    5.3445 O   0  0  0  0  0  0  0  0  0  0  0  0
    0.9191   12.4543    5.5979 C   0  0  0  0  0  0  0  0  0  0  0  0
    0.0229   13.4206    6.3525 C   0  0  0  0  0  0  0  0  0  0  0  0
   -2.9841    5.7324    2.9101 C   0  0  0  0  0  0  0  0  0  0  0  0
   -4.0062    5.2354    3.9602 C   0  0  0  0  0  0  0  0  0  0  0  0
   -5.2208    4.4971    3.3633 C   0  0  2  0  0  0  0  0  0  0  0  0
   -6.2225    4.0855    4.4628 C   0  0  0  0  0  0  0  0  0  0  0  0
   -7.4384    3.3111    3.9261 C   0  0  0  0  0  0  0  0  0  0  0  0
   -8.4412    2.9053    5.0205 C   0  0  0  0  0  0  0  0  0  0  0  0
   -9.0479    4.0722    5.8059 C   0  0  0  0  0  0  0  0  0  0  0  0
   -9.8233    5.0330    4.9174 C   0  0  0  0  0  0  0  0  0  0  0  0
    0.6196   14.6108    6.5605 O   0  0  0  0  0  0  0  0  0  0  0  0
   -1.1363   13.2451    6.7343 O   0  0  0  0  0  0  0  0  0  0  0  0
   -1.3753    5.7165    5.8351 O   0  0  0  0  0  0  0  0  0  0  0  0
   -4.7740    3.3409    2.6589 O   0  0  0  0  0  0  0  0  0  0  0  0
  1  2  1  0  0  0  0
  1  6  2  0  0  0  0
  1 10  1  0  0  0  0
  2  3  2  0  0  0  0
  3  4  1  0  0  0  0
  4  5  2  0  0  0  0
  5  6  1  0  0  0  0
  5 14  1  0  0  0  0
  6  7  1  0  0  0  0
  8  7  1  1  0  0  0
  8 12  1  0  0  0  0
  9 10  1  1  0  0  0
  9  8  1  0  0  0  0
 11  9  1  0  0  0  0
 11 13  1  0  0  0  0
 11 17  1  6  0  0  0
 12 13  1  0  0  0  0
 13 27  1  1  0  0  0
 14 15  1  0  0  0  0
 15 16  1  0  0  0  0
 16 25  1  0  0  0  0
 16 26  2  0  0  0  0
 17 18  1  0  0  0  0
 19 28  1  1  0  0  0
 19 20  1  0  0  0  0
 19 18  1  0  0  0  0
 20 21  1  0  0  0  0
 21 22  1  0  0  0  0
 22 23  1  0  0  0  0
 23 24  1  0  0  0  0
M  END
