384
 OpenBabel10141417493D

 19 21  0  0  0  0  0  0  0  0999 V2000
   -1.3281   -1.3561   -0.0395 N   0  0  0  0  0  0  0  0  0  0  0  0
   -1.1201    1.4303    0.0573 N   0  0  0  0  0  0  0  0  0  0  0  0
    1.1523    1.3173   -0.0259 N   0  0  0  0  0  0  0  0  0  0  0  0
    2.2857   -0.7453   -0.1106 N   0  0  0  0  0  0  0  0  0  0  0  0
   -3.4127    1.6858    0.1514 N   0  0  0  0  0  0  0  0  0  0  0  0
    1.1572   -2.7729   -0.0556 N   0  0  0  0  0  0  0  0  0  0  0  0
    3.4640    1.2465   -0.1068 N   0  0  0  0  0  0  0  0  0  0  0  0
   -2.4403   -0.5809    0.0044 C   0  0  0  0  0  0  0  0  0  0  0  0
   -0.1259   -0.7115   -0.0417 C   0  0  0  0  0  0  0  0  0  0  0  0
   -3.7161   -1.3231   -0.0033 C   0  0  0  0  0  0  0  0  0  0  0  0
   -0.0147    0.6808   -0.0065 C   0  0  0  0  0  0  0  0  0  0  0  0
   -2.3222    0.8164    0.0753 C   0  0  0  0  0  0  0  0  0  0  0  0
    1.0986   -1.3690   -0.0954 C   0  0  0  0  0  0  0  0  0  0  0  0
   -4.8144   -0.9177   -0.7827 C   0  0  0  0  0  0  0  0  0  0  0  0
   -3.8635   -2.4936    0.7649 C   0  0  0  0  0  0  0  0  0  0  0  0
    2.2561    0.5831   -0.0946 C   0  0  0  0  0  0  0  0  0  0  0  0
   -6.0142   -1.6362   -0.7767 C   0  0  0  0  0  0  0  0  0  0  0  0
   -5.0613   -3.2141    0.7726 C   0  0  0  0  0  0  0  0  0  0  0  0
   -6.1377   -2.7822    0.0036 C   0  0  0  0  0  0  0  0  0  0  0  0
  1  8  2  0  0  0  0
  1  9  1  0  0  0  0
  2 11  1  0  0  0  0
  2 12  2  0  0  0  0
  3 11  2  0  0  0  0
  3 16  1  0  0  0  0
  4 13  1  0  0  0  0
  4 16  2  0  0  0  0
  5 12  1  0  0  0  0
  6 13  1  0  0  0  0
  7 16  1  0  0  0  0
  8 10  1  0  0  0  0
  8 12  1  0  0  0  0
  9 11  1  0  0  0  0
  9 13  2  0  0  0  0
 10 14  2  0  0  0  0
 10 15  1  0  0  0  0
 14 17  1  0  0  0  0
 15 18  2  0  0  0  0
 17 19  2  0  0  0  0
 18 19  1  0  0  0  0
M  END
