508
 OpenBabel10141417503D

 24 26  0  0  0  0  0  0  0  0999 V2000
    0.7237   -4.1389   -1.5132 S   0  0  0  0  0  0  0  0  0  0  0  0
    4.8254   -0.1330    2.1038 F   0  0  0  0  0  0  0  0  0  0  0  0
    5.7992   -2.0631    2.3264 F   0  0  0  0  0  0  0  0  0  0  0  0
    6.2203   -0.8270    0.5881 F   0  0  0  0  0  0  0  0  0  0  0  0
    0.3706   -1.5970    0.2797 N   0  0  0  0  0  0  0  0  0  0  0  0
    0.4358    2.6888   -1.1895 N   0  0  0  0  0  0  0  0  0  0  0  0
    0.1298   -0.1296    0.1399 C   0  0  0  0  0  0  0  0  0  0  0  0
   -0.3055    0.2380   -1.2873 C   0  0  0  0  0  0  0  0  0  0  0  0
    1.7008   -2.0543    0.0818 C   0  0  0  0  0  0  0  0  0  0  0  0
   -0.7744   -2.4286    0.1248 C   0  0  0  0  0  0  0  0  0  0  0  0
   -0.6433    1.7264   -1.4757 C   0  0  0  0  0  0  0  0  0  0  0  0
    1.9828   -3.2310   -0.6376 C   0  0  0  0  0  0  0  0  0  0  0  0
   -0.7424   -3.5980   -0.6574 C   0  0  0  0  0  0  0  0  0  0  0  0
    2.7811   -1.4104    0.7190 C   0  0  0  0  0  0  0  0  0  0  0  0
   -1.9779   -2.1262    0.7934 C   0  0  0  0  0  0  0  0  0  0  0  0
    4.0954   -1.9151    0.6614 C   0  0  0  0  0  0  0  0  0  0  0  0
    3.2947   -3.7305   -0.7171 C   0  0  0  0  0  0  0  0  0  0  0  0
   -1.8998   -4.3788   -0.8288 C   0  0  0  0  0  0  0  0  0  0  0  0
    4.3413   -3.0805   -0.0667 C   0  0  0  0  0  0  0  0  0  0  0  0
   -3.1223   -2.9176    0.6333 C   0  0  0  0  0  0  0  0  0  0  0  0
    1.5898    2.5036   -2.0747 C   0  0  0  0  0  0  0  0  0  0  0  0
   -0.0753    4.0585   -1.3537 C   0  0  0  0  0  0  0  0  0  0  0  0
   -3.0885   -4.0301   -0.1912 C   0  0  0  0  0  0  0  0  0  0  0  0
    5.2167   -1.2390    1.4115 C   0  0  0  0  0  0  0  0  0  0  0  0
  1 12  1  0  0  0  0
  1 13  1  0  0  0  0
  2 24  1  0  0  0  0
  3 24  1  0  0  0  0
  4 24  1  0  0  0  0
  5  7  1  0  0  0  0
  5  9  1  0  0  0  0
  5 10  1  0  0  0  0
  6 11  1  0  0  0  0
  6 21  1  0  0  0  0
  6 22  1  0  0  0  0
  7  8  1  0  0  0  0
  8 11  1  0  0  0  0
  9 12  2  0  0  0  0
  9 14  1  0  0  0  0
 10 13  1  0  0  0  0
 10 15  2  0  0  0  0
 12 17  1  0  0  0  0
 13 18  2  0  0  0  0
 14 16  2  0  0  0  0
 15 20  1  0  0  0  0
 16 19  1  0  0  0  0
 16 24  1  0  0  0  0
 17 19  2  0  0  0  0
 18 23  1  0  0  0  0
 20 23  2  0  0  0  0
M  END
