376
 OpenBabel10141417483D

 22 24  0  0  1  0  0  0  0  0999 V2000
    3.0477    1.7694   -0.2987 O   0  0  0  0  0  0  0  0  0  0  0  0
    4.2970   -2.3349   -0.4852 N   0  0  0  0  0  0  0  0  0  0  0  0
    5.2618    2.6493   -0.9071 C   0  0  0  0  0  0  0  0  0  0  0  0
    4.1422    1.5462   -1.1913 C   0  0  3  0  0  0  0  0  0  0  0  0
    5.8292    2.6948    0.5402 C   0  0  0  0  0  0  0  0  0  0  0  0
    4.8985    4.0974   -1.3250 C   0  0  0  0  0  0  0  0  0  0  0  0
    4.7032    0.1363   -0.8250 C   0  0  0  0  0  0  0  0  0  0  0  0
    4.9939    3.4804    1.5498 C   0  0  0  0  0  0  0  0  0  0  0  0
    4.0438    4.8643   -0.3183 C   0  0  0  0  0  0  0  0  0  0  0  0
    4.6883    4.8873    1.0603 C   0  0  0  0  0  0  0  0  0  0  0  0
    3.7055   -1.0360   -0.9143 C   0  0  0  0  0  0  0  0  0  0  0  0
    3.6860    1.5830   -2.6727 C   0  0  0  0  0  0  0  0  0  0  0  0
    4.6764   -2.3320    0.9406 C   0  0  0  0  0  0  0  0  0  0  0  0
    3.3367   -3.4239   -0.7489 C   0  0  0  0  0  0  0  0  0  0  0  0
    5.2783   -3.6692    1.3822 C   0  0  0  0  0  0  0  0  0  0  0  0
    3.8993   -4.7955   -0.3640 C   0  0  0  0  0  0  0  0  0  0  0  0
    4.3388   -4.8292    1.0936 C   0  0  0  0  0  0  0  0  0  0  0  0
    4.6172    1.3537   -3.7030 C   0  0  0  0  0  0  0  0  0  0  0  0
    2.3576    1.8463   -3.0616 C   0  0  0  0  0  0  0  0  0  0  0  0
    4.2445    1.4059   -5.0560 C   0  0  0  0  0  0  0  0  0  0  0  0
    1.9886    1.9153   -4.4129 C   0  0  0  0  0  0  0  0  0  0  0  0
    2.9340    1.6944   -5.4092 C   0  0  0  0  0  0  0  0  0  0  0  0
  1  4  1  0  0  0  0
  2 11  1  0  0  0  0
  2 13  1  0  0  0  0
  2 14  1  0  0  0  0
  3  4  1  0  0  0  0
  3  5  1  0  0  0  0
  3  6  1  0  0  0  0
  4  7  1  0  0  0  0
  4 12  1  0  0  0  0
  5  8  1  0  0  0  0
  6  9  1  0  0  0  0
  7 11  1  0  0  0  0
  8 10  1  0  0  0  0
  9 10  1  0  0  0  0
 12 18  2  0  0  0  0
 12 19  1  0  0  0  0
 13 15  1  0  0  0  0
 14 16  1  0  0  0  0
 15 17  1  0  0  0  0
 16 17  1  0  0  0  0
 18 20  1  0  0  0  0
 19 21  2  0  0  0  0
 20 22  2  0  0  0  0
 21 22  1  0  0  0  0
M  END
