1116
 OpenBabel10141417523D

 26 30  0  0  1  0  0  0  0  0999 V2000
   -0.8268    1.9767    2.2814 S   0  3  3  0  0  0  0  0  0  0  0  0
    2.4355   -0.4885   -1.7998 O   0  0  0  0  0  0  0  0  0  0  0  0
    0.5435   -0.5889   -0.4390 N   0  0  0  0  0  0  0  0  0  0  0  0
    2.3020    0.6613    0.2193 N   0  0  0  0  0  0  0  0  0  0  0  0
    0.1841   -0.1331    0.8957 C   0  0  3  0  0  0  0  0  0  0  0  0
   -1.1497    0.6194    1.0387 C   0  0  3  0  0  0  0  0  0  0  0  0
    1.3478    0.7975    1.3039 C   0  0  3  0  0  0  0  0  0  0  0  0
    0.8053    2.2128    1.4806 C   0  0  0  0  0  0  0  0  0  0  0  0
   -1.7020    1.3160   -0.2069 C   0  0  0  0  0  0  0  0  0  0  0  0
   -1.7823    3.1997    1.3181 C   0  0  0  0  0  0  0  0  0  0  0  0
   -2.6090    2.4191    0.3112 C   0  0  0  0  0  0  0  0  0  0  0  0
    1.8240   -0.1643   -0.7885 C   0  0  0  0  0  0  0  0  0  0  0  0
   -0.0989   -1.7087   -1.1092 C   0  0  0  0  0  0  0  0  0  0  0  0
    3.6826    1.1096    0.3091 C   0  0  0  0  0  0  0  0  0  0  0  0
    0.0693   -3.0201   -0.3753 C   0  0  0  0  0  0  0  0  0  0  0  0
    4.4279    0.4650    1.4574 C   0  0  0  0  0  0  0  0  0  0  0  0
    1.1858   -3.8361   -0.6103 C   0  0  0  0  0  0  0  0  0  0  0  0
   -0.8787   -3.4305    0.5745 C   0  0  0  0  0  0  0  0  0  0  0  0
    4.9895    1.2491    2.4761 C   0  0  0  0  0  0  0  0  0  0  0  0
    4.5379   -0.9317    1.5431 C   0  0  0  0  0  0  0  0  0  0  0  0
    1.3536   -5.0297    0.0963 C   0  0  0  0  0  0  0  0  0  0  0  0
   -0.7063   -4.6205    1.2836 C   0  0  0  0  0  0  0  0  0  0  0  0
    5.5967    0.6479    3.5814 C   0  0  0  0  0  0  0  0  0  0  0  0
    5.1314   -1.5305    2.6560 C   0  0  0  0  0  0  0  0  0  0  0  0
    0.4117   -5.4176    1.0477 C   0  0  0  0  0  0  0  0  0  0  0  0
    5.6501   -0.7410    3.6802 C   0  0  0  0  0  0  0  0  0  0  0  0
  1  6  1  0  0  0  0
  1  8  1  0  0  0  0
  1 10  1  0  0  0  0
  2 12  2  0  0  0  0
  3  5  1  0  0  0  0
  3 12  1  0  0  0  0
  3 13  1  0  0  0  0
  4  7  1  0  0  0  0
  4 12  1  0  0  0  0
  4 14  1  0  0  0  0
  5  6  1  0  0  0  0
  5  7  1  0  0  0  0
  6  9  1  0  0  0  0
  7  8  1  0  0  0  0
  9 11  1  0  0  0  0
 10 11  1  0  0  0  0
 13 15  1  0  0  0  0
 14 16  1  0  0  0  0
 15 17  2  0  0  0  0
 15 18  1  0  0  0  0
 16 19  2  0  0  0  0
 16 20  1  0  0  0  0
 17 21  1  0  0  0  0
 18 22  2  0  0  0  0
 19 23  1  0  0  0  0
 20 24  2  0  0  0  0
 21 25  2  0  0  0  0
 22 25  1  0  0  0  0
 23 26  2  0  0  0  0
 24 26  1  0  0  0  0
M  CHG  1   1   1
M  END
