
 OpenBabel10141417543D

 17 19  0  0  0  0  0  0  0  0999 V2000
    0.9131   -0.3323   -0.0159 C   0  0  0  0  0  0  0  0  0  0  0  0
    2.4027   -0.1422    0.0280 C   0  0  0  0  0  0  0  0  0  0  0  0
    3.2527   -1.1713   -0.0739 C   0  0  0  0  0  0  0  0  0  0  0  0
    4.7161   -1.0170   -0.0492 C   0  0  0  0  0  0  0  0  0  0  0  0
    5.4472   -1.9870   -0.1702 O   0  0  0  0  0  0  0  0  0  0  0  0
    5.2027    0.2717    0.1281 O   0  0  0  0  0  0  0  0  0  0  0  0
    4.3443    1.4019    0.1688 C   0  0  0  0  0  0  0  0  0  0  0  0
    2.9557    1.2141    0.1351 C   0  0  0  0  0  0  0  0  0  0  0  0
    2.1236    2.3378    0.1570 C   0  0  0  0  0  0  0  0  0  0  0  0
    2.6932    3.6153    0.0921 C   0  0  0  0  0  0  0  0  0  0  0  0
    2.1561    4.9163   -0.0242 C   0  0  0  0  0  0  0  0  0  0  0  0
    3.2278    5.7682   -0.1405 C   0  0  0  0  0  0  0  0  0  0  0  0
    4.4009    5.0771   -0.0182 O   0  0  0  0  0  0  0  0  0  0  0  0
    4.0771    3.7498    0.1057 C   0  0  0  0  0  0  0  0  0  0  0  0
    4.9693    2.6723    0.2051 C   0  0  0  0  0  0  0  0  0  0  0  0
    6.4553    2.8157    0.3214 C   0  0  0  0  0  0  0  0  0  0  0  0
    3.3018    7.2189   -0.3983 C   0  0  0  0  0  0  0  0  0  0  0  0
  1  2  1  0  0  0  0
  2  3  2  0  0  0  0
  2  8  1  0  0  0  0
  3  4  1  0  0  0  0
  4  5  2  0  0  0  0
  4  6  1  0  0  0  0
  6  7  1  0  0  0  0
  7  8  2  0  0  0  0
  7 15  1  0  0  0  0
  8  9  1  0  0  0  0
  9 10  2  0  0  0  0
 10 11  1  0  0  0  0
 10 14  1  0  0  0  0
 11 12  2  0  0  0  0
 12 13  1  0  0  0  0
 12 17  1  0  0  0  0
 13 14  1  0  0  0  0
 14 15  2  0  0  0  0
 15 16  1  0  0  0  0
M  END
