792
 OpenBabel10141419013D

 19 20  0  0  1  0  0  0  0  0999 V2000
    3.8517   -0.8601   -1.1764 N   0  0  0  0  0  0  0  0  0  0  0  0
    1.3981   -2.8551    1.0575 N   0  0  0  0  0  0  0  0  0  0  0  0
    2.4753   -1.6947   -2.9431 N   0  0  0  0  0  0  0  0  0  0  0  0
    2.6730   -1.1558   -0.3299 C   0  0  0  0  0  0  0  0  0  0  0  0
    2.1983   -2.6119   -0.1897 C   0  0  0  0  0  0  0  0  0  0  0  0
    4.6044    0.4114   -0.9115 C   0  0  0  0  0  0  0  0  0  0  0  0
    3.6453   -1.1495   -2.5430 C   0  0  0  0  0  0  0  0  0  0  0  0
    5.0782    0.6682    0.5250 C   0  0  0  0  0  0  0  0  0  0  0  0
    0.1386   -2.1088    1.0407 C   0  0  0  0  0  0  0  0  0  0  0  0
    1.1112   -4.2851    1.1878 C   0  0  0  0  0  0  0  0  0  0  0  0
    6.3457    1.2464    0.7631 C   0  0  0  0  0  0  0  0  0  0  0  0
    4.2740    0.5053    1.6513 C   0  0  0  0  0  0  0  0  0  0  0  0
    4.6581   -0.9459   -3.4841 C   0  0  0  0  0  0  0  0  0  0  0  0
    6.7131    1.5838    2.0654 C   0  0  0  0  0  0  0  0  0  0  0  0
    4.6732    0.6865    2.9458 C   0  0  0  0  0  0  0  0  0  0  0  0
    4.4405   -1.2049   -4.8383 C   0  0  0  0  0  0  0  0  0  0  0  0
    5.9024    1.2958    3.1596 C   0  0  0  0  0  0  0  0  0  0  0  0
    2.2998   -2.0040   -4.2498 C   0  0  0  0  0  0  0  0  0  0  0  0
    3.2327   -1.7455   -5.2317 C   0  0  0  0  0  0  0  0  0  0  0  0
  1  4  1  0  0  0  0
  1  6  1  0  0  0  0
  1  7  1  0  0  0  0
  2  5  1  0  0  0  0
  2  9  1  0  0  0  0
  2 10  1  0  0  0  0
  3  7  1  0  0  0  0
  3 18  2  0  0  0  0
  4  5  1  0  0  0  0
  6  8  1  0  0  0  0
  7 13  2  0  0  0  0
  8 11  2  0  0  0  0
  8 12  1  0  0  0  0
 11 14  1  0  0  0  0
 12 15  2  0  0  0  0
 13 16  1  0  0  0  0
 14 17  2  0  0  0  0
 15 17  1  0  0  0  0
 16 19  2  0  0  0  0
 18 19  1  0  0  0  0
M  END
