[NO NAME]
 OpenBabel10141417483D
Created with ChemWriter - http://chemwriter.com
 38 36  0  0  0  0  0  0  0  0999 V2000
   -0.0105   -0.0149   -1.2706 C   0  0  0  0  0  0  0  0  0  0  0  0
    0.1813   -1.1908   -2.7211 N   0  3  0  0  0  0  0  0  0  0  0  0
   -0.1167   -0.2346   -3.8843 C   0  0  0  0  0  0  0  0  0  0  0  0
   -0.7570   -2.3527   -2.8376 C   0  0  0  0  0  0  0  0  0  0  0  0
    1.6400   -1.7268   -3.0633 C   0  0  0  0  0  0  0  0  0  0  0  0
    1.7841   -2.6215   -4.3358 C   0  0  0  0  0  0  0  0  0  0  0  0
    1.0473   -3.8429   -4.3228 O   0  0  0  0  0  0  0  0  0  0  0  0
   -0.6590   -1.2280   -0.0510 C   0  0  0  0  0  0  0  0  0  0  0  0
   -1.3900   -0.1120   -0.0540 C   0  0  0  0  0  0  0  0  0  0  0  0
   -0.7320    1.1400    0.1000 C   0  0  0  0  0  0  0  0  0  0  0  0
    0.6630    1.2080   -0.0480 C   0  0  0  0  0  0  0  0  0  0  0  0
    1.3710    0.1170   -0.0510 C   0  0  0  0  0  0  0  0  0  0  0  0
    0.7450   -1.1270    0.1040 C   0  0  0  0  0  0  0  0  0  0  0  0
    2.8040    0.1878   -0.2143 C   0  0  0  0  0  0  0  0  0  0  0  0
    2.8691    0.2418   -2.0048 O   0  0  0  0  0  0  0  0  0  0  0  0
    4.5948    0.2801   -0.4122 O   0  5  0  0  0  0  0  0  0  0  0  0
    1.2687    2.4053   -0.1871 O   0  0  0  0  0  0  0  0  0  0  0  0
   -0.6590   -1.2280   -0.0510 C   0  0  0  0  0  0  0  0  0  0  0  0
   -1.3900   -0.1120   -0.0540 C   0  0  0  0  0  0  0  0  0  0  0  0
   -0.7320    1.1400    0.1000 C   0  0  0  0  0  0  0  0  0  0  0  0
    0.6630    1.2080   -0.0480 C   0  0  0  0  0  0  0  0  0  0  0  0
    1.3710    0.1170   -0.0510 C   0  0  0  0  0  0  0  0  0  0  0  0
    0.7450   -1.1270    0.1040 C   0  0  0  0  0  0  0  0  0  0  0  0
    2.8040    0.1878   -0.2143 C   0  0  0  0  0  0  0  0  0  0  0  0
    3.4906   -0.7334    1.1579 O   0  0  0  0  0  0  0  0  0  0  0  0
    3.4837    1.7616   -0.7822 O   0  5  0  0  0  0  0  0  0  0  0  0
    1.2687    2.4053   -0.1871 O   0  0  0  0  0  0  0  0  0  0  0  0
    4.8975    1.7218    0.3214 Mg  0  2  0  0  0 15  0  0  0  0  0  0
   -0.6590   -1.2280   -0.0510 C   0  0  0  0  0  0  0  0  0  0  0  0
   -1.3900   -0.1120   -0.0540 C   0  0  0  0  0  0  0  0  0  0  0  0
   -0.7320    1.1400    0.1000 C   0  0  0  0  0  0  0  0  0  0  0  0
    0.6630    1.2080   -0.0480 C   0  0  0  0  0  0  0  0  0  0  0  0
    1.3710    0.1170   -0.0510 C   0  0  0  0  0  0  0  0  0  0  0  0
    0.7450   -1.1270    0.1040 C   0  0  0  0  0  0  0  0  0  0  0  0
    2.8040    0.1878   -0.2143 C   0  0  0  0  0  0  0  0  0  0  0  0
    3.3846   -1.4046   -0.7721 O   0  0  0  0  0  0  0  0  0  0  0  0
    3.4712    1.2030    1.1152 O   0  5  0  0  0  0  0  0  0  0  0  0
    1.2687    2.4053   -0.1871 O   0  0  0  0  0  0  0  0  0  0  0  0
  1  2  1  0  0  0  0
  2  3  1  0  0  0  0
  2  4  1  0  0  0  0
  2  5  1  0  0  0  0
  5  6  1  0  0  0  0
  6  7  1  0  0  0  0
  8  9  2  0  0  0  0
  8 13  1  0  0  0  0
  9 10  1  0  0  0  0
 10 11  2  0  0  0  0
 11 12  1  0  0  0  0
 11 17  1  0  0  0  0
 12 13  2  0  0  0  0
 12 14  1  0  0  0  0
 14 15  2  0  0  0  0
 14 16  1  0  0  0  0
 18 19  2  0  0  0  0
 18 23  1  0  0  0  0
 19 20  1  0  0  0  0
 20 21  2  0  0  0  0
 21 22  1  0  0  0  0
 21 27  1  0  0  0  0
 22 23  2  0  0  0  0
 22 24  1  0  0  0  0
 24 25  2  0  0  0  0
 24 26  1  0  0  0  0
 29 30  2  0  0  0  0
 29 34  1  0  0  0  0
 30 31  1  0  0  0  0
 31 32  2  0  0  0  0
 32 33  1  0  0  0  0
 32 38  1  0  0  0  0
 33 34  2  0  0  0  0
 33 35  1  0  0  0  0
 35 36  2  0  0  0  0
 35 37  1  0  0  0  0
M  CHG  5   2   1  16  -1  26  -1  28   2  37  -1
M  END
