
 OpenBabel10141417493D

 36 39  0  0  1  0  0  0  0  0999 V2000
    2.0326    1.8652   -4.3130 S   0  0  0  0  0  0  0  0  0  0  0  0
    1.5267    2.9829   -5.0813 O   0  0  0  0  0  0  0  0  0  0  0  0
    2.1216    0.5335   -4.9069 O   0  0  0  0  0  0  0  0  0  0  0  0
    6.9588    3.4920   -1.4362 O   0  0  0  0  0  0  0  0  0  0  0  0
    7.6016    7.8558   -1.9932 O   0  0  0  0  0  0  0  0  0  0  0  0
    0.6474    2.7864    0.1327 N   0  0  0  0  0  0  0  0  0  0  0  0
    1.1161    1.7841   -2.9085 N   0  0  0  0  0  0  0  0  0  0  0  0
    6.0478    5.7776   -5.1085 N   0  0  0  0  0  0  0  0  0  0  0  0
    7.5802    8.8709   -4.7574 N   0  0  0  0  0  0  0  0  0  0  0  0
    7.3382    9.0058   -6.0591 N   0  0  0  0  0  0  0  0  0  0  0  0
    6.6736    5.9170   -2.7962 N   0  0  0  0  0  0  0  0  0  0  0  0
    0.5805    1.3338    0.3681 C   0  0  3  0  0  0  0  0  0  0  0  0
    1.9831    0.8999    0.8058 C   0  0  0  0  0  0  0  0  0  0  0  0
    2.8760    2.0330    0.3655 C   0  0  0  0  0  0  0  0  0  0  0  0
    2.0047    3.2612    0.4184 C   0  0  0  0  0  0  0  0  0  0  0  0
    0.0890    0.5635   -0.8934 C   0  0  0  0  0  0  0  0  0  0  0  0
    0.9442    0.4980   -2.1841 C   0  0  0  0  0  0  0  0  0  0  0  0
   -0.3182    3.6206    0.8415 C   0  0  0  0  0  0  0  0  0  0  0  0
    3.6752    2.3088   -3.7853 C   0  0  0  0  0  0  0  0  0  0  0  0
    4.3900    3.4693   -4.1726 C   0  0  0  0  0  0  0  0  0  0  0  0
    5.5473    3.8801   -3.4390 C   0  0  0  0  0  0  0  0  0  0  0  0
    4.2230    1.4724   -2.8367 C   0  0  0  0  0  0  0  0  0  0  0  0
    6.5496    7.0255   -5.3251 C   0  0  0  0  0  0  0  0  0  0  0  0
    6.1543    5.2656   -3.7941 C   0  0  0  0  0  0  0  0  0  0  0  0
    5.9843    3.0748   -2.3296 C   0  0  0  0  0  0  0  0  0  0  0  0
    6.6268    7.9315   -6.4161 C   0  0  0  0  0  0  0  0  0  0  0  0
    7.1200    7.6866   -4.2627 C   0  0  0  0  0  0  0  0  0  0  0  0
    5.3547    1.8414   -2.1304 C   0  0  0  0  0  0  0  0  0  0  0  0
    6.0997    7.9272   -7.8278 C   0  0  0  0  0  0  0  0  0  0  0  0
    7.1726    7.1930   -2.9296 C   0  0  0  0  0  0  0  0  0  0  0  0
    5.6474    9.3190   -8.3536 C   0  0  0  0  0  0  0  0  0  0  0  0
    8.3117    9.9244   -4.0978 C   0  0  0  0  0  0  0  0  0  0  0  0
    7.2742    2.7046   -0.2525 C   0  0  0  0  0  0  0  0  0  0  0  0
    6.7367   10.3851   -8.5486 C   0  0  0  0  0  0  0  0  0  0  0  0
    7.1354    3.4918    1.0582 C   0  0  0  0  0  0  0  0  0  0  0  0
    7.3710    2.6184    2.3026 C   0  0  0  0  0  0  0  0  0  0  0  0
  1  2  2  0  0  0  0
  1  3  2  0  0  0  0
  1  7  1  0  0  0  0
  1 19  1  0  0  0  0
  4 25  1  0  0  0  0
  4 33  1  0  0  0  0
  5 30  2  0  0  0  0
  6 12  1  0  0  0  0
  6 15  1  0  0  0  0
  6 18  1  0  0  0  0
  7 17  1  0  0  0  0
  8 23  1  0  0  0  0
  8 24  1  0  0  0  0
  9 10  1  0  0  0  0
  9 27  1  0  0  0  0
  9 32  1  0  0  0  0
 10 26  2  0  0  0  0
 11 24  2  0  0  0  0
 11 30  1  0  0  0  0
 12 13  1  0  0  0  0
 12 16  1  0  0  0  0
 13 14  1  0  0  0  0
 14 15  1  0  0  0  0
 16 17  1  0  0  0  0
 19 20  2  0  0  0  0
 19 22  1  0  0  0  0
 20 21  1  0  0  0  0
 21 24  1  0  0  0  0
 21 25  2  0  0  0  0
 22 28  2  0  0  0  0
 23 26  1  0  0  0  0
 23 27  2  0  0  0  0
 25 28  1  0  0  0  0
 26 29  1  0  0  0  0
 27 30  1  0  0  0  0
 29 31  1  0  0  0  0
 31 34  1  0  0  0  0
 33 35  1  0  0  0  0
 35 36  1  0  0  0  0
M  END
