791
 OpenBabel10141419013D

 15 15  0  0  0  0  0  0  0  0999 V2000
    3.9064    0.8226    1.2308 Cl  0  0  0  0  0  0  0  0  0  0  0  0
    7.9643    1.1994    1.3298 Cl  0  0  0  0  0  0  0  0  0  0  0  0
    5.6772   -4.0950    3.3447 O   0  0  0  0  0  0  0  0  0  0  0  0
    7.2498   -7.5624    0.8615 O   0  0  0  0  0  0  0  0  0  0  0  0
    5.7102   -2.2246    0.9995 N   0  0  0  0  0  0  0  0  0  0  0  0
    6.2503   -5.8587    2.0228 N   0  0  0  0  0  0  0  0  0  0  0  0
    7.0624   -5.4971   -0.0933 N   0  0  0  0  0  0  0  0  0  0  0  0
    4.2540   -1.9180    0.8337 C   0  0  0  0  0  0  0  0  0  0  0  0
    6.5588   -1.1713    1.6305 C   0  0  0  0  0  0  0  0  0  0  0  0
    6.1285   -3.5859    1.0149 C   0  0  0  0  0  0  0  0  0  0  0  0
    3.9079   -0.5926    0.1266 C   0  0  0  0  0  0  0  0  0  0  0  0
    6.9678   -0.0839    0.6117 C   0  0  0  0  0  0  0  0  0  0  0  0
    5.9832   -4.4999    2.2335 C   0  0  0  0  0  0  0  0  0  0  0  0
    6.6771   -4.1718   -0.0524 C   0  0  0  0  0  0  0  0  0  0  0  0
    6.8698   -6.3711    0.9300 C   0  0  0  0  0  0  0  0  0  0  0  0
  1 11  1  0  0  0  0
  2 12  1  0  0  0  0
  3 13  2  0  0  0  0
  4 15  2  0  0  0  0
  5  8  1  0  0  0  0
  5  9  1  0  0  0  0
  5 10  1  0  0  0  0
  6 13  1  0  0  0  0
  6 15  1  0  0  0  0
  7 14  1  0  0  0  0
  7 15  1  0  0  0  0
  8 11  1  0  0  0  0
  9 12  1  0  0  0  0
 10 13  1  0  0  0  0
 10 14  2  0  0  0  0
M  END
