1273
 OpenBabel10141417503D

 16 19  0  0  1  0  0  0  0  0999 V2000
   -3.8734    0.1025   -0.7685 N   0  0  0  0  0  0  0  0  0  0  0  0
    2.7030   -1.2734    0.0248 N   0  0  0  0  0  0  0  0  0  0  0  0
    2.8246    1.4546   -0.7133 N   0  0  0  0  0  0  0  0  0  0  0  0
   -2.1132   -0.5800    0.9324 C   0  0  1  0  0  0  0  0  0  0  0  0
   -2.0687    1.6655    0.1529 C   0  0  2  0  0  0  0  0  0  0  0  0
   -2.4487    0.8536    1.4105 C   0  0  0  0  0  0  0  0  0  0  0  0
   -0.7504   -0.2873    0.3528 C   0  0  0  0  0  0  0  0  0  0  0  0
   -0.7118    1.0396   -0.0741 C   0  0  0  0  0  0  0  0  0  0  0  0
   -3.1016   -1.0082   -0.1733 C   0  0  0  0  0  0  0  0  0  0  0  0
   -3.0555    1.3164   -0.9920 C   0  0  0  0  0  0  0  0  0  0  0  0
    0.3775   -1.0857    0.3174 C   0  0  0  0  0  0  0  0  0  0  0  0
    0.4777    1.6151   -0.4851 C   0  0  0  0  0  0  0  0  0  0  0  0
    1.5903   -0.5173   -0.0545 C   0  0  0  0  0  0  0  0  0  0  0  0
    1.6466    0.8564   -0.4407 C   0  0  0  0  0  0  0  0  0  0  0  0
    3.8696   -0.6451   -0.2337 C   0  0  0  0  0  0  0  0  0  0  0  0
    3.9295    0.6869   -0.5832 C   0  0  0  0  0  0  0  0  0  0  0  0
  1  9  1  0  0  0  0
  1 10  1  0  0  0  0
  2 13  2  0  0  0  0
  2 15  1  0  0  0  0
  3 14  2  0  0  0  0
  3 16  1  0  0  0  0
  4  6  1  1  0  0  0
  4  7  1  0  0  0  0
  4  9  1  0  0  0  0
  5  6  1  6  0  0  0
  5  8  1  0  0  0  0
  5 10  1  0  0  0  0
  7  8  1  0  0  0  0
  7 11  2  0  0  0  0
  8 12  2  0  0  0  0
 11 13  1  0  0  0  0
 12 14  1  0  0  0  0
 13 14  1  0  0  0  0
 15 16  2  0  0  0  0
M  END
