
 OpenBabel10141417523D

 33 36  0  0  0  0  0  0  0  0999 V2000
    0.2204    0.6017   -3.9379 C   0  0  0  0  0  0  0  0  0  0  0  0
   -7.5205   -1.6693   -0.3774 C   0  0  0  0  0  0  0  0  0  0  0  0
   -5.9543   -3.6880   -0.6585 C   0  0  0  0  0  0  0  0  0  0  0  0
   -6.7221   -6.0203   -0.1431 C   0  0  0  0  0  0  0  0  0  0  0  0
   -7.6467   -7.0739   -0.2640 C   0  0  0  0  0  0  0  0  0  0  0  0
   -8.8223   -6.8913   -0.9885 C   0  0  0  0  0  0  0  0  0  0  0  0
   -8.1262   -4.6383   -1.5033 C   0  0  0  0  0  0  0  0  0  0  0  0
   -3.7847    0.0940   -2.4164 C   0  0  0  0  0  0  0  0  0  0  0  0
   -4.7072    1.1495   -2.3780 C   0  0  0  0  0  0  0  0  0  0  0  0
   -5.9670    1.1283   -1.8673 N   0  0  0  0  0  0  0  0  0  0  0  0
   -4.2395   -1.1370   -1.9080 C   0  0  0  0  0  0  0  0  0  0  0  0
   -7.4925   -0.3522   -0.7683 N   0  0  0  0  0  0  0  0  0  0  0  0
   -6.3414   -2.2776   -0.7924 C   0  0  0  0  0  0  0  0  0  0  0  0
   -5.5387   -1.2327   -1.3679 C   0  0  0  0  0  0  0  0  0  0  0  0
   -6.3026   -0.0749   -1.3750 C   0  0  0  0  0  0  0  0  0  0  0  0
   -2.4105    0.2686   -2.9454 C   0  0  0  0  0  0  0  0  0  0  0  0
   -6.9661   -4.7746   -0.7376 C   0  0  0  0  0  0  0  0  0  0  0  0
   -9.0544   -5.6734   -1.6169 C   0  0  0  0  0  0  0  0  0  0  0  0
   -8.3736   -3.5273   -2.2087 F   0  0  0  0  0  0  0  0  0  0  0  0
   -5.6025   -6.2487    0.5624 F   0  0  0  0  0  0  0  0  0  0  0  0
   -7.3296   -8.4017    0.2018 N   0  0  0  0  0  0  0  0  0  0  0  0
   -6.5844   -9.3672   -1.0054 S   0  0  0  0  0  0  0  0  0  0  0  0
   -7.0691   -8.9832   -2.3058 O   0  0  0  0  0  0  0  0  0  0  0  0
   -5.1763   -9.3468   -0.6673 O   0  0  0  0  0  0  0  0  0  0  0  0
   -7.2569  -10.9849   -0.6101 C   0  0  0  0  0  0  0  0  0  0  0  0
   -6.7562  -12.0813   -1.5500 C   0  0  0  0  0  0  0  0  0  0  0  0
   -5.2591  -12.3376   -1.4572 C   0  0  0  0  0  0  0  0  0  0  0  0
   -1.7297    1.4982   -2.8335 C   0  0  0  0  0  0  0  0  0  0  0  0
   -0.4305    1.6670   -3.3278 C   0  0  0  0  0  0  0  0  0  0  0  0
   -0.4180   -0.6268   -4.0593 C   0  0  0  0  0  0  0  0  0  0  0  0
   -1.7205   -0.7881   -3.5703 C   0  0  0  0  0  0  0  0  0  0  0  0
    1.8164    0.8050   -4.5447 Cl  0  0  0  0  0  0  0  0  0  0  0  0
   -4.7732   -4.0006   -0.5362 O   0  0  0  0  0  0  0  0  0  0  0  0
  1 30  1  0  0  0  0
  1 32  1  0  0  0  0
  2 12  1  0  0  0  0
  2 13  2  0  0  0  0
  3 17  1  0  0  0  0
  3 33  2  0  0  0  0
  4  5  2  0  0  0  0
  4 20  1  0  0  0  0
  5  6  1  0  0  0  0
  5 21  1  0  0  0  0
  6 18  2  0  0  0  0
  7 19  1  0  0  0  0
  8  9  2  0  0  0  0
  8 11  1  0  0  0  0
  8 16  1  0  0  0  0
  9 10  1  0  0  0  0
 11 14  2  0  0  0  0
 13  3  1  0  0  0  0
 14 13  1  0  0  0  0
 14 15  1  0  0  0  0
 15 10  2  0  0  0  0
 15 12  1  0  0  0  0
 16 28  2  0  0  0  0
 16 31  1  0  0  0  0
 17  4  1  0  0  0  0
 17  7  2  0  0  0  0
 18  7  1  0  0  0  0
 21 22  1  0  0  0  0
 23 22  2  0  0  0  0
 24 22  2  0  0  0  0
 25 22  1  0  0  0  0
 25 26  1  0  0  0  0
 26 27  1  0  0  0  0
 28 29  1  0  0  0  0
 29  1  2  0  0  0  0
 30 31  2  0  0  0  0
M  END
