
 OpenBabel10141417523D

 53 58  0  0  1  0  0  0  0  0999 V2000
    3.9002    2.9684    0.3094 O   0  0  0  0  0  0  0  0  0  0  0  0
    3.1705    1.2255    1.5905 O   0  0  0  0  0  0  0  0  0  0  0  0
    3.8558    2.1592   -3.8020 O   0  0  0  0  0  0  0  0  0  0  0  0
    5.4078    2.8563   -2.2623 O   0  0  0  0  0  0  0  0  0  0  0  0
   11.6291   -1.1528    6.5586 O   0  0  0  0  0  0  0  0  0  0  0  0
   10.3599   -0.0144    8.1070 O   0  0  0  0  0  0  0  0  0  0  0  0
    4.0945    4.5818    9.9597 O   0  0  0  0  0  0  0  0  0  0  0  0
    5.2972    5.3168    8.1875 O   0  0  0  0  0  0  0  0  0  0  0  0
    3.8731   -2.2731    1.6172 N   0  0  0  0  0  0  0  0  0  0  0  0
    6.0643    0.9016    3.2578 N   0  0  0  0  0  0  0  0  0  0  0  0
    1.7098   -1.8310    3.3236 N   0  0  0  0  0  0  0  0  0  0  0  0
    3.6989   -0.3733    5.2399 N   0  0  0  0  0  0  0  0  0  0  0  0
    4.6067   -0.7298   -0.0535 C   0  0  2  0  0  0  0  0  0  0  0  0
    4.5852    0.8010   -0.3731 C   0  0  1  0  0  0  0  0  0  0  0  0
    3.2097   -1.2721   -0.3650 C   0  0  0  0  0  0  0  0  0  0  0  0
    4.8358   -1.3388    1.3187 C   0  0  0  0  0  0  0  0  0  0  0  0
    5.6827   -1.4145   -0.9371 C   0  0  0  0  0  0  0  0  0  0  0  0
    3.9613    1.0161   -1.7666 C   0  0  0  0  0  0  0  0  0  0  0  0
    2.8932   -2.1356    0.7800 C   0  0  0  0  0  0  0  0  0  0  0  0
    2.4498   -0.8476   -1.3768 C   0  0  0  0  0  0  0  0  0  0  0  0
    2.9833    0.1990   -2.2230 C   0  0  0  0  0  0  0  0  0  0  0  0
    3.7787    1.6434    0.6112 C   0  0  0  0  0  0  0  0  0  0  0  0
    5.6983   -1.1708    2.3141 C   0  0  0  0  0  0  0  0  0  0  0  0
    1.5961   -2.7575    1.0548 C   0  0  0  0  0  0  0  0  0  0  0  0
    6.6322   -0.1551    2.5764 C   0  0  0  0  0  0  0  0  0  0  0  0
    4.5036    2.1155   -2.6098 C   0  0  0  0  0  0  0  0  0  0  0  0
    7.8739   -0.3319    3.1845 C   0  0  0  0  0  0  0  0  0  0  0  0
    1.1833   -2.6326    2.3306 C   0  0  0  0  0  0  0  0  0  0  0  0
    7.6424    0.0487    4.5660 C   0  0  0  0  0  0  0  0  0  0  0  0
    6.4072    0.6856    4.5787 C   0  0  0  0  0  0  0  0  0  0  0  0
    0.1467   -3.4229    2.9944 C   0  0  0  0  0  0  0  0  0  0  0  0
    8.4412   -0.3412    5.7778 C   0  0  0  0  0  0  0  0  0  0  0  0
    8.9693   -1.1819    2.6464 C   0  0  0  0  0  0  0  0  0  0  0  0
    1.2363   -2.1579    4.5663 C   0  0  0  0  0  0  0  0  0  0  0  0
    0.2011   -3.1910    4.3359 C   0  0  0  0  0  0  0  0  0  0  0  0
    5.5339    1.1883    5.5638 C   0  0  0  0  0  0  0  0  0  0  0  0
    4.2813    0.7540    5.7912 C   0  0  0  0  0  0  0  0  0  0  0  0
    3.5486    3.8632    1.3653 C   0  0  0  0  0  0  0  0  0  0  0  0
    3.3289    1.3523    6.7272 C   0  0  0  0  0  0  0  0  0  0  0  0
    9.8749    0.1626    5.7380 C   0  0  0  0  0  0  0  0  0  0  0  0
    1.6105   -1.6560    5.7504 C   0  0  0  0  0  0  0  0  0  0  0  0
    2.5654   -0.5240    5.8600 C   0  0  0  0  0  0  0  0  0  0  0  0
   -0.7376   -4.3490    2.2372 C   0  0  0  0  0  0  0  0  0  0  0  0
    2.2406    0.5643    6.8099 C   0  0  0  0  0  0  0  0  0  0  0  0
    3.4748    2.7375    7.3302 C   0  0  0  0  0  0  0  0  0  0  0  0
    4.2677    3.2050   -4.6799 C   0  0  0  0  0  0  0  0  0  0  0  0
   -0.5727   -3.9271    5.3120 C   0  0  0  0  0  0  0  0  0  0  0  0
    0.9251    0.7234    7.4743 C   0  0  0  0  0  0  0  0  0  0  0  0
   10.6386   -0.3049    6.9405 C   0  0  0  0  0  0  0  0  0  0  0  0
    4.6528    2.9719    8.2828 C   0  0  0  0  0  0  0  0  0  0  0  0
   -1.3592   -3.3640    6.2368 C   0  0  0  0  0  0  0  0  0  0  0  0
    4.7192    4.3932    8.7817 C   0  0  0  0  0  0  0  0  0  0  0  0
   12.1237   -1.9960    7.5960 C   0  0  0  0  0  0  0  0  0  0  0  0
  1 22  1  0  0  0  0
  1 38  1  0  0  0  0
  2 22  2  0  0  0  0
  3 26  1  0  0  0  0
  3 46  1  0  0  0  0
  4 26  2  0  0  0  0
  5 49  1  0  0  0  0
  5 53  1  0  0  0  0
  6 49  2  0  0  0  0
  7 52  1  0  0  0  0
  8 52  2  0  0  0  0
  9 16  1  0  0  0  0
  9 19  2  0  0  0  0
 10 25  1  0  0  0  0
 10 30  1  0  0  0  0
 11 28  1  0  0  0  0
 11 34  1  0  0  0  0
 12 37  1  0  0  0  0
 12 42  2  0  0  0  0
 13 14  1  0  0  0  0
 13 15  1  0  0  0  0
 13 16  1  0  0  0  0
 13 17  1  6  0  0  0
 14 18  1  0  0  0  0
 14 22  1  1  0  0  0
 15 19  1  0  0  0  0
 15 20  2  0  0  0  0
 16 23  2  0  0  0  0
 18 21  2  0  0  0  0
 18 26  1  0  0  0  0
 19 24  1  0  0  0  0
 20 21  1  0  0  0  0
 23 25  1  0  0  0  0
 24 28  2  0  0  0  0
 25 27  2  0  0  0  0
 27 29  1  0  0  0  0
 27 33  1  0  0  0  0
 28 31  1  0  0  0  0
 29 30  2  0  0  0  0
 29 32  1  0  0  0  0
 30 36  1  0  0  0  0
 31 35  2  0  0  0  0
 31 43  1  0  0  0  0
 32 40  1  0  0  0  0
 34 35  1  0  0  0  0
 34 41  2  0  0  0  0
 35 47  1  0  0  0  0
 36 37  2  0  0  0  0
 37 39  1  0  0  0  0
 39 44  2  0  0  0  0
 39 45  1  0  0  0  0
 40 49  1  0  0  0  0
 41 42  1  0  0  0  0
 42 44  1  0  0  0  0
 44 48  1  0  0  0  0
 45 50  1  0  0  0  0
 47 51  2  0  0  0  0
 50 52  1  0  0  0  0
M  END
