1080
 OpenBabel10141417493D

  9  8  0  0  1  0  0  0  0  0999 V2000
    2.1001   -4.1128    1.0077 O   0  0  0  0  0  0  0  0  0  0  0  0
    1.4856   -2.9429   -0.8097 O   0  0  0  0  0  0  0  0  0  0  0  0
    6.5150   -2.9355    0.0227 N   0  0  0  0  0  0  0  0  0  0  0  0
    4.3346   -1.8318    0.2349 C   0  0  0  0  0  0  0  0  0  0  0  0
    5.1664   -3.0899    0.5568 C   0  0  3  0  0  0  0  0  0  0  0  0
    2.9151   -1.8685    0.8071 C   0  0  0  0  0  0  0  0  0  0  0  0
    5.2676   -3.3226    2.0414 C   0  0  0  0  0  0  0  0  0  0  0  0
    2.0885   -2.9978    0.2408 C   0  0  0  0  0  0  0  0  0  0  0  0
    4.8169   -4.4113    2.6819 C   0  0  0  0  0  0  0  0  0  0  0  0
  1  8  1  0  0  0  0
  2  8  2  0  0  0  0
  3  5  1  0  0  0  0
  4  5  1  0  0  0  0
  4  6  1  0  0  0  0
  5  7  1  0  0  0  0
  6  8  1  0  0  0  0
  7  9  2  0  0  0  0
M  END
