
 OpenBabel10141417513D

 59 67  0  0  0  0  0  0  0  0999 V2000
   -1.2068   -0.8247   -0.3635 C   0  0  0  0  0  0  0  0  0  0  0  0
   -1.2867    1.9711   -0.6497 C   0  0  0  0  0  0  0  0  0  0  0  0
   -0.0537   -0.0855   -0.3323 C   0  0  0  0  0  0  0  0  0  0  0  0
    2.5417    4.8575   -2.4920 C   0  0  0  0  0  0  0  0  0  0  0  0
    4.1034    4.3887   -0.6233 C   0  0  0  0  0  0  0  0  0  0  0  0
    3.8050    5.0605   -1.7398 C   0  0  0  0  0  0  0  0  0  0  0  0
   -0.0739    1.2850   -0.6214 C   0  0  0  0  0  0  0  0  0  0  0  0
    1.3594    1.6751   -0.9834 C   0  0  1  0  0  0  0  0  0  0  0  0
    1.5688    1.3578   -2.4929 C   0  0  0  0  0  0  0  0  0  0  0  0
    1.8949    3.5866   -2.2354 N   0  0  3  0  0  0  0  0  0  0  0  0
    2.4084    2.4898   -3.0332 C   0  0  0  0  0  0  0  0  0  0  0  0
    3.1994    3.3066    0.0210 C   0  0  1  0  0  0  0  0  0  0  0  0
    4.0108    0.1094   -1.3029 O   0  0  0  0  0  0  0  0  0  0  0  0
    2.0260    0.6747   -0.0304 C   0  0  2  0  0  0  0  0  0  0  0  0
    1.8593    3.1239   -0.8276 C   0  0  1  0  0  0  0  0  0  0  0  0
    2.7970    3.9816    1.3852 C   0  0  0  0  0  0  0  0  0  0  0  0
    1.9422    3.1947    2.3662 C   0  0  0  0  0  0  0  0  0  0  0  0
    4.1669    2.0305    0.1489 C   0  0  1  0  0  0  0  0  0  0  0  0
    4.9658    2.2144    1.3485 O   0  0  0  0  0  0  0  0  0  0  0  0
    6.7067    3.7321    1.9250 C   0  0  0  0  0  0  0  0  0  0  0  0
    6.2912    2.5146    1.1172 C   0  0  0  0  0  0  0  0  0  0  0  0
    6.9910    1.9643    0.3108 O   0  0  0  0  0  0  0  0  0  0  0  0
    3.5494    0.6025   -0.0125 C   0  0  1  0  0  0  0  0  0  0  0  0
    3.9570   -0.4554    1.0553 C   0  0  0  0  0  0  0  0  0  0  0  0
    2.7420   -1.8408    2.5517 C   0  0  0  0  0  0  0  0  0  0  0  0
    4.8908   -1.2275    0.9028 O   0  0  0  0  0  0  0  0  0  0  0  0
    3.0631   -0.5206    2.0881 O   0  0  0  0  0  0  0  0  0  0  0  0
    1.2517   -0.6055   -0.1189 N   0  0  0  0  0  0  0  0  0  0  0  0
    1.5826   -1.6772   -1.0539 C   0  0  0  0  0  0  0  0  0  0  0  0
   -3.8881    3.3416    0.1586 C   0  0  0  0  0  0  0  0  0  0  0  0
   -5.1113    6.7858    0.2905 C   0  0  0  0  0  0  0  0  0  0  0  0
   -4.2165    5.9038    2.8095 C   0  0  0  0  0  0  0  0  0  0  0  0
   -4.7940    7.1685    2.6669 C   0  0  0  0  0  0  0  0  0  0  0  0
   -4.5416    5.5174    0.4595 C   0  0  0  0  0  0  0  0  0  0  0  0
   -6.0011    0.5141    3.9639 C   0  0  0  0  0  0  0  0  0  0  0  0
   -6.9172    0.3728    1.4806 C   0  0  0  0  0  0  0  0  0  0  0  0
   -4.1016    5.0517    1.6862 C   0  0  0  0  0  0  0  0  0  0  0  0
   -4.3219    4.5146   -0.4481 N   0  0  0  0  0  0  0  0  0  0  0  0
   -4.5568    0.5101    2.0370 C   0  0  0  0  0  0  0  0  0  0  0  0
   -3.6585    3.6875    1.5126 C   0  0  0  0  0  0  0  0  0  0  0  0
   -3.1801    2.9017    2.7240 C   0  0  0  0  0  0  0  0  0  0  0  0
   -5.2308    1.1905   -0.2895 C   0  0  0  0  0  0  0  0  0  0  0  0
   -5.2399    7.5990    1.4219 C   0  0  0  0  0  0  0  0  0  0  0  0
   -5.6370    1.1576    1.1906 C   0  0  1  0  0  0  0  0  0  0  0  0
   -4.6961    0.9302    3.4172 N   0  0  3  0  0  0  0  0  0  0  0  0
   -4.3388    2.3482    3.6254 C   0  0  0  0  0  0  0  0  0  0  0  0
   -7.2558    0.3403    2.9994 C   0  0  2  0  0  0  0  0  0  0  0  0
   -7.8174   -0.9756    3.2228 O   0  0  0  0  0  0  0  0  0  0  0  0
   -2.3958   -0.1834   -0.7023 C   0  0  0  0  0  0  0  0  0  0  0  0
   -3.4374   -0.9080   -1.2274 O   0  0  0  0  0  0  0  0  0  0  0  0
   -3.1073   -2.1734   -1.8170 C   0  0  0  0  0  0  0  0  0  0  0  0
   -8.3587    1.3527    3.3993 C   0  0  0  0  0  0  0  0  0  0  0  0
   -9.6483    1.2772    2.5818 C   0  0  0  0  0  0  0  0  0  0  0  0
   -2.5086    1.2350   -0.6203 C   0  0  0  0  0  0  0  0  0  0  0  0
   -3.8860    1.9801   -0.6916 C   0  0  2  0  0  0  0  0  0  0  0  0
   -4.1903    2.2804   -2.2158 C   0  0  0  0  0  0  0  0  0  0  0  0
   -4.0329    1.4095   -4.4167 C   0  0  0  0  0  0  0  0  0  0  0  0
   -3.6361    1.3518   -3.0477 O   0  0  0  0  0  0  0  0  0  0  0  0
   -4.9330    3.1751   -2.6154 O   0  0  0  0  0  0  0  0  0  0  0  0
  1  3  1  0  0  0  0
  2 54  2  0  0  0  0
  2  7  1  0  0  0  0
  3 28  1  0  0  0  0
  3  7  2  0  0  0  0
  4 10  1  0  0  0  0
  4  6  1  0  0  0  0
  5  6  2  0  0  0  0
  8  7  1  6  0  0  0
  8 15  1  0  0  0  0
  8  9  1  0  0  0  0
 10 11  1  0  0  0  0
 11  9  1  0  0  0  0
 12  5  1  0  0  0  0
 12 16  1  6  0  0  0
 14 28  1  6  0  0  0
 14  8  1  0  0  0  0
 14 23  1  0  0  0  0
 15 12  1  1  0  0  0
 15 10  1  0  0  0  0
 16 17  1  0  0  0  0
 18 12  1  0  0  0  0
 18 19  1  1  0  0  0
 19 21  1  0  0  0  0
 21 20  1  0  0  0  0
 21 22  2  0  0  0  0
 23 18  1  0  0  0  0
 23 13  1  1  0  0  0
 23 24  1  0  0  0  0
 24 26  2  0  0  0  0
 24 27  1  0  0  0  0
 27 25  1  0  0  0  0
 28 29  1  0  0  0  0
 30 55  1  0  0  0  0
 31 34  2  0  0  0  0
 32 33  1  0  0  0  0
 32 37  2  0  0  0  0
 33 43  2  0  0  0  0
 34 38  1  0  0  0  0
 34 37  1  0  0  0  0
 35 45  1  0  0  0  0
 35 47  1  0  0  0  0
 36 47  1  0  0  0  0
 37 40  1  0  0  0  0
 38 30  1  0  0  0  0
 40 30  2  0  0  0  0
 41 40  1  0  0  0  0
 42 44  1  0  0  0  0
 43 31  1  0  0  0  0
 44 36  1  6  0  0  0
 44 39  1  0  0  0  0
 45 39  1  0  0  0  0
 45 46  1  0  0  0  0
 46 41  1  0  0  0  0
 47 52  1  6  0  0  0
 47 48  1  0  0  0  0
 49  1  2  0  0  0  0
 49 50  1  0  0  0  0
 50 51  1  0  0  0  0
 52 53  1  0  0  0  0
 54 49  1  0  0  0  0
 55 42  1  0  0  0  0
 55 56  1  6  0  0  0
 55 54  1  0  0  0  0
 56 58  1  0  0  0  0
 56 59  2  0  0  0  0
 58 57  1  0  0  0  0
M  END
