40839
 OpenBabel10141417493D

 55 63  0  0  1  0  0  0  0  0999 V2000
   10.2457   15.1075    6.5179 O   0  0  0  0  0  0  0  0  0  0  0  0
   10.8924   13.1875    4.7068 O   0  0  0  0  0  0  0  0  0  0  0  0
   10.1133   13.2212    8.2788 O   0  0  0  0  0  0  0  0  0  0  0  0
    4.0625   10.2402    6.4657 O   0  0  0  0  0  0  0  0  0  0  0  0
    5.6569   10.5991    2.9613 O   0  0  0  0  0  0  0  0  0  0  0  0
    3.9374   10.0907    1.5606 O   0  0  0  0  0  0  0  0  0  0  0  0
   -1.9564    9.9207    4.8744 O   0  0  0  0  0  0  0  0  0  0  0  0
    7.3774   16.5145    3.3586 N   0  0  3  0  0  0  0  0  0  0  0  0
    7.0433   13.9394    7.2947 N   0  0  0  0  0  0  0  0  0  0  0  0
    9.1771   11.6858    6.9347 N   0  0  0  0  0  0  0  0  0  0  0  0
    0.1530   11.8114    6.4991 N   0  0  3  0  0  0  0  0  0  0  0  0
    2.2292   12.1769    1.6010 N   0  0  0  0  0  0  0  0  0  0  0  0
    6.9350   14.8698    5.0646 C   0  0  1  0  0  0  0  0  0  0  0  0
    7.6869   15.0978    3.7212 C   0  0  2  0  0  0  0  0  0  0  0  0
    7.8313   14.7572    6.3587 C   0  0  2  0  0  0  0  0  0  0  0  0
    9.2049   14.6315    3.6323 C   0  0  1  0  0  0  0  0  0  0  0  0
    9.2315   14.1059    6.1841 C   0  0  1  0  0  0  0  0  0  0  0  0
    6.0292   16.1144    5.1829 C   0  0  0  0  0  0  0  0  0  0  0  0
    9.5129   13.6077    4.7609 C   0  0  2  0  0  0  0  0  0  0  0  0
    6.0277   13.6615    5.2217 C   0  0  0  0  0  0  0  0  0  0  0  0
    6.8659   17.1936    4.5465 C   0  0  0  0  0  0  0  0  0  0  0  0
    9.4021   13.9381    2.2289 C   0  0  0  0  0  0  0  0  0  0  0  0
    6.1056   13.2525    6.5452 C   0  0  0  0  0  0  0  0  0  0  0  0
   10.1537   15.8253    3.6759 C   0  0  0  0  0  0  0  0  0  0  0  0
    8.4210   17.2845    2.6985 C   0  0  0  0  0  0  0  0  0  0  0  0
    9.7856   17.0357    3.2400 C   0  0  0  0  0  0  0  0  0  0  0  0
    9.5347   12.9706    7.2155 C   0  0  0  0  0  0  0  0  0  0  0  0
    5.0982   13.0710    4.3549 C   0  0  0  0  0  0  0  0  0  0  0  0
    6.7963   14.3441    8.6625 C   0  0  0  0  0  0  0  0  0  0  0  0
    5.3632   12.1886    6.9871 C   0  0  0  0  0  0  0  0  0  0  0  0
   10.7880   13.3929    1.8833 C   0  0  0  0  0  0  0  0  0  0  0  0
    4.3275   11.9404    4.7729 C   0  0  0  0  0  0  0  0  0  0  0  0
    4.5750   11.4565    6.0900 C   0  0  0  0  0  0  0  0  0  0  0  0
    3.3932   11.2301    3.7166 C   0  0  1  0  0  0  0  0  0  0  0  0
    2.5029    9.9647    4.1633 C   0  0  0  0  0  0  0  0  0  0  0  0
    2.3758   12.2374    2.9858 C   0  0  0  0  0  0  0  0  0  0  0  0
    1.1715   10.2755    4.8776 C   0  0  1  0  0  0  0  0  0  0  0  0
    4.3356   10.5786    2.6074 C   0  0  0  0  0  0  0  0  0  0  0  0
    0.3004    9.0751    5.2705 C   0  0  0  0  0  0  0  0  0  0  0  0
    1.3640   11.1015    6.1423 C   0  0  0  0  0  0  0  0  0  0  0  0
    1.3672   13.1256    3.4274 C   0  0  0  0  0  0  0  0  0  0  0  0
   -1.0387    9.5558    5.9165 C   0  0  1  0  0  0  0  0  0  0  0  0
   -0.8829   10.8196    6.8461 C   0  0  0  0  0  0  0  0  0  0  0  0
    0.9556   13.6016    4.8133 C   0  0  0  0  0  0  0  0  0  0  0  0
   -0.2307   12.7993    5.4654 C   0  0  0  0  0  0  0  0  0  0  0  0
    0.5791   13.4919    2.2709 C   0  0  0  0  0  0  0  0  0  0  0  0
    4.3531    9.7840    7.7886 C   0  0  0  0  0  0  0  0  0  0  0  0
    1.1201   12.8577    1.1644 C   0  0  0  0  0  0  0  0  0  0  0  0
   -1.6777    8.4171    6.7534 C   0  0  0  0  0  0  0  0  0  0  0  0
   -0.5938   14.2631    2.0928 C   0  0  0  0  0  0  0  0  0  0  0  0
    0.5439   12.9374   -0.1128 C   0  0  0  0  0  0  0  0  0  0  0  0
   -2.0238    7.1519    5.9775 C   0  0  0  0  0  0  0  0  0  0  0  0
    6.5600   10.0071    2.0286 C   0  0  0  0  0  0  0  0  0  0  0  0
   -1.1890   14.3506    0.8297 C   0  0  0  0  0  0  0  0  0  0  0  0
   -0.6277   13.6898   -0.2573 C   0  0  0  0  0  0  0  0  0  0  0  0
  3 27  2  0  0  0  0
  4 47  1  0  0  0  0
  4 33  1  0  0  0  0
  5 38  1  0  0  0  0
  5 53  1  0  0  0  0
  6 38  2  0  0  0  0
  8 21  1  0  0  0  0
  8 25  1  0  0  0  0
  9 23  1  0  0  0  0
  9 29  1  0  0  0  0
 10 27  1  0  0  0  0
 11 40  1  0  0  0  0
 11 43  1  0  0  0  0
 11 45  1  0  0  0  0
 12 36  1  0  0  0  0
 12 48  1  0  0  0  0
 13 14  1  0  0  0  0
 13 15  1  0  0  0  0
 13 18  1  1  0  0  0
 13 20  1  0  0  0  0
 14  8  1  1  0  0  0
 14 16  1  0  0  0  0
 15  9  1  1  0  0  0
 15 17  1  0  0  0  0
 16 19  1  0  0  0  0
 16 24  1  0  0  0  0
 16 22  1  6  0  0  0
 17 19  1  0  0  0  0
 17 27  1  1  0  0  0
 17  1  1  0  0  0  0
 18 21  1  0  0  0  0
 19  2  1  1  0  0  0
 20 23  1  0  0  0  0
 20 28  2  0  0  0  0
 22 31  1  0  0  0  0
 23 30  2  0  0  0  0
 24 26  2  0  0  0  0
 25 26  1  0  0  0  0
 28 32  1  0  0  0  0
 30 33  1  0  0  0  0
 32 33  2  0  0  0  0
 34 35  1  0  0  0  0
 34 36  1  0  0  0  0
 34 32  1  1  0  0  0
 34 38  1  0  0  0  0
 36 41  2  0  0  0  0
 37 35  1  1  0  0  0
 37 39  1  0  0  0  0
 37 40  1  0  0  0  0
 39 42  1  0  0  0  0
 41 44  1  0  0  0  0
 41 46  1  0  0  0  0
 42 43  1  0  0  0  0
 42 49  1  1  0  0  0
 42  7  1  0  0  0  0
 44 45  1  0  0  0  0
 46 48  1  0  0  0  0
 46 50  2  0  0  0  0
 48 51  2  0  0  0  0
 49 52  1  0  0  0  0
 50 54  1  0  0  0  0
 51 55  1  0  0  0  0
 54 55  2  0  0  0  0
M  END
