
 OpenBabel10141417493D

 57 65  0  0  1  0  0  0  0  0999 V2000
   10.4915   -2.9971    5.3971 C   0  0  0  0  0  0  0  0  0  0  0  0
   11.4752   -3.7914    4.8154 C   0  0  0  0  0  0  0  0  0  0  0  0
   11.4798   -5.1700    5.0142 C   0  0  0  0  0  0  0  0  0  0  0  0
    9.4789   -3.5674    6.1853 C   0  0  0  0  0  0  0  0  0  0  0  0
    9.4620   -4.9640    6.4054 C   0  0  0  0  0  0  0  0  0  0  0  0
   10.4701   -5.7073    5.8189 C   0  0  0  0  0  0  0  0  0  0  0  0
   10.2564   -6.9993    6.1839 N   0  0  0  0  0  0  0  0  0  0  0  0
    9.1719   -7.1630    7.0291 C   0  0  0  0  0  0  0  0  0  0  0  0
    8.6002   -5.8845    7.1301 C   0  0  0  0  0  0  0  0  0  0  0  0
    6.1177   -5.9154    7.3388 N   0  0  3  0  0  0  0  0  0  0  0  0
    5.8121   -7.3043    7.6047 C   0  0  0  0  0  0  0  0  0  0  0  0
    6.2461   -8.3435    6.5488 C   0  0  1  0  0  0  0  0  0  0  0  0
    6.0671   -7.7871    5.1487 C   0  0  0  0  0  0  0  0  0  0  0  0
    5.8180   -6.4864    4.9060 C   0  0  0  0  0  0  0  0  0  0  0  0
    5.7264   -5.4609    6.0148 C   0  0  0  0  0  0  0  0  0  0  0  0
    7.5975   -9.1087    6.6743 C   0  0  0  0  0  0  0  0  0  0  0  0
    8.8094   -8.6107    7.5401 C   0  0  1  0  0  0  0  0  0  0  0  0
    9.9783   -9.6133    7.0824 C   0  0  0  0  0  0  0  0  0  0  0  0
    8.6241   -8.7204    9.0902 C   0  0  0  0  0  0  0  0  0  0  0  0
    9.6520   -8.3229    9.9954 C   0  0  0  0  0  0  0  0  0  0  0  0
    9.3679   -8.1588   11.3585 C   0  0  0  0  0  0  0  0  0  0  0  0
    7.4227   -9.2526    9.6595 C   0  0  0  0  0  0  0  0  0  0  0  0
    7.1963   -9.1762   11.0263 C   0  0  0  0  0  0  0  0  0  0  0  0
    8.1352   -8.5276   11.8488 C   0  0  0  0  0  0  0  0  0  0  0  0
    7.6513   -8.4246   13.1932 N   0  0  0  0  0  0  0  0  0  0  0  0
    6.0345   -9.5241   11.9438 C   0  0  1  0  0  0  0  0  0  0  0  0
    6.9394   -9.7147   13.2129 C   0  0  2  0  0  0  0  0  0  0  0  0
    6.2334  -10.3289   14.4328 C   0  0  1  0  0  0  0  0  0  0  0  0
    5.6179  -11.7820   14.0124 C   0  0  1  0  0  0  0  0  0  0  0  0
    5.3050  -11.9884   12.4262 C   0  0  2  0  0  0  0  0  0  0  0  0
    4.0238  -12.8189   12.2398 C   0  0  0  0  0  0  0  0  0  0  0  0
    2.9909  -12.3948   11.4830 C   0  0  0  0  0  0  0  0  0  0  0  0
    2.9263  -11.0689   10.7464 C   0  0  0  0  0  0  0  0  0  0  0  0
    4.9553  -10.5846   11.9344 C   0  0  2  0  0  0  0  0  0  0  0  0
    4.1997  -10.3324   10.7120 N   0  0  3  0  0  0  0  0  0  0  0  0
    4.0216   -8.8528   10.7555 C   0  0  0  0  0  0  0  0  0  0  0  0
    5.0592   -8.3226   11.7893 C   0  0  0  0  0  0  0  0  0  0  0  0
    7.2183  -10.4613   15.6390 C   0  0  0  0  0  0  0  0  0  0  0  0
    6.4191  -12.7311   11.6314 C   0  0  0  0  0  0  0  0  0  0  0  0
    6.1630  -12.9591   10.1337 C   0  0  0  0  0  0  0  0  0  0  0  0
    6.3989  -12.9040   14.5150 O   0  0  0  0  0  0  0  0  0  0  0  0
    6.0000  -13.4411   15.7043 C   0  0  0  0  0  0  0  0  0  0  0  0
    5.0509  -13.0347   16.4141 O   0  0  0  0  0  0  0  0  0  0  0  0
    6.8609  -14.6020   16.0989 C   0  0  0  0  0  0  0  0  0  0  0  0
    8.5312   -7.8564   14.1810 C   0  0  0  0  0  0  0  0  0  0  0  0
   10.9239   -8.0994    9.5136 O   0  0  0  0  0  0  0  0  0  0  0  0
   10.7677   -9.3901    6.1612 O   0  0  0  0  0  0  0  0  0  0  0  0
   11.9882   -8.3692   10.4431 C   0  0  0  0  0  0  0  0  0  0  0  0
    9.9542  -10.8272    7.7081 O   0  0  0  0  0  0  0  0  0  0  0  0
   10.9416  -11.7539    7.2218 C   0  0  0  0  0  0  0  0  0  0  0  0
    5.5491   -5.9784    3.5086 C   0  0  0  0  0  0  0  0  0  0  0  0
    6.5692   -4.9413    3.0611 C   0  0  0  0  0  0  0  0  0  0  0  0
    5.1439   -9.4699   14.8245 O   0  0  0  0  0  0  0  0  0  0  0  0
    8.3943  -10.2394   15.6325 O   0  0  0  0  0  0  0  0  0  0  0  0
    6.5191  -10.8180   16.7625 O   0  0  0  0  0  0  0  0  0  0  0  0
    7.2195  -10.8020   18.0092 C   0  0  0  0  0  0  0  0  0  0  0  0
    7.3809   -5.4253    7.8666 C   0  0  0  0  0  0  0  0  0  0  0  0
  1  2  2  0  0  0  0
  2  3  1  0  0  0  0
  3  6  2  0  0  0  0
  4  1  1  0  0  0  0
  5  4  2  0  0  0  0
  5  6  1  0  0  0  0
  6  7  1  0  0  0  0
  7  8  1  0  0  0  0
  8  9  2  0  0  0  0
  9  5  1  0  0  0  0
  9 57  1  0  0  0  0
 10 15  1  0  0  0  0
 10 11  1  0  0  0  0
 12 11  1  1  0  0  0
 12 13  1  0  0  0  0
 12 16  1  0  0  0  0
 13 14  2  0  0  0  0
 14 15  1  0  0  0  0
 14 51  1  0  0  0  0
 16 17  1  0  0  0  0
 17  8  1  0  0  0  0
 17 19  1  1  0  0  0
 17 18  1  0  0  0  0
 18 47  2  0  0  0  0
 18 49  1  0  0  0  0
 19 20  2  0  0  0  0
 20 21  1  0  0  0  0
 20 46  1  0  0  0  0
 21 24  2  0  0  0  0
 22 19  1  0  0  0  0
 23 22  2  0  0  0  0
 23 24  1  0  0  0  0
 24 25  1  0  0  0  0
 25 45  1  0  0  0  0
 26 37  1  6  0  0  0
 26 23  1  0  0  0  0
 26 27  1  0  0  0  0
 27 28  1  0  0  0  0
 27 25  1  1  0  0  0
 28 29  1  0  0  0  0
 28 53  1  1  0  0  0
 28 38  1  0  0  0  0
 29 30  1  0  0  0  0
 29 41  1  6  0  0  0
 30 31  1  0  0  0  0
 30 39  1  1  0  0  0
 31 32  2  0  0  0  0
 32 33  1  0  0  0  0
 33 35  1  0  0  0  0
 34 26  1  6  0  0  0
 34 30  1  0  0  0  0
 34 35  1  0  0  0  0
 35 36  1  0  0  0  0
 37 36  1  0  0  0  0
 38 54  2  0  0  0  0
 38 55  1  0  0  0  0
 39 40  1  0  0  0  0
 41 42  1  0  0  0  0
 42 43  2  0  0  0  0
 42 44  1  0  0  0  0
 46 48  1  0  0  0  0
 49 50  1  0  0  0  0
 51 52  1  0  0  0  0
 55 56  1  0  0  0  0
 57 10  1  0  0  0  0
M  END
