
 OpenBabel10141417483D

 21 21  0  0  0  0  0  0  0  0999 V2000
    0.5535   -2.6146    3.0496 C   0  0  0  0  0  0  0  0  0  0  0  0
   -0.5316   -2.3443    1.9813 C   0  0  0  0  0  0  0  0  0  0  0  0
   -1.8568   -2.2977    2.2676 C   0  0  0  0  0  0  0  0  0  0  0  0
   -2.3888   -2.5011    3.6676 C   0  0  0  0  0  0  0  0  0  0  0  0
   -1.3274   -2.4461    4.7588 C   0  0  0  0  0  0  0  0  0  0  0  0
   -0.0829   -3.2066    4.3329 C   0  0  0  0  0  0  0  0  0  0  0  0
   -0.2292   -4.2479   -9.0677 C   0  0  0  0  0  0  0  0  0  0  0  0
   -0.4586   -4.2147   -7.5917 C   0  0  0  0  0  0  0  0  0  0  0  0
    0.1033   -3.3902   -6.6755 C   0  0  0  0  0  0  0  0  0  0  0  0
   -0.3125   -3.5006   -5.2750 C   0  0  0  0  0  0  0  0  0  0  0  0
    0.1697   -2.7588   -4.2509 C   0  0  0  0  0  0  0  0  0  0  0  0
   -0.2802   -2.9176   -2.8886 C   0  0  0  0  0  0  0  0  0  0  0  0
    0.1613   -2.2344   -1.8074 C   0  0  0  0  0  0  0  0  0  0  0  0
   -0.3626   -2.6019   -0.4925 C   0  0  0  0  0  0  0  0  0  0  0  0
   -0.0327   -2.0034    0.6586 C   0  0  0  0  0  0  0  0  0  0  0  0
    0.1968   -5.5534   -9.4399 O   0  0  0  0  0  0  0  0  0  0  0  0
    1.1330   -2.3355   -6.9958 C   0  0  0  0  0  0  0  0  0  0  0  0
    1.1793   -1.1210   -1.8257 C   0  0  0  0  0  0  0  0  0  0  0  0
   -2.9393   -1.9964    1.2544 C   0  0  0  0  0  0  0  0  0  0  0  0
    1.2884   -1.2976    3.3969 C   0  0  0  0  0  0  0  0  0  0  0  0
    1.6144   -3.6395    2.5790 C   0  0  0  0  0  0  0  0  0  0  0  0
  1 20  1  0  0  0  0
  1 21  1  0  0  0  0
  1  2  1  0  0  0  0
  1  6  1  0  0  0  0
  2 15  1  0  0  0  0
  3  2  2  0  0  0  0
  4  3  1  0  0  0  0
  5  4  1  0  0  0  0
  6  5  1  0  0  0  0
  8  7  1  0  0  0  0
  9  8  2  0  0  0  0
 10  9  1  0  0  0  0
 11 10  2  0  0  0  0
 12 11  1  0  0  0  0
 13 12  2  0  0  0  0
 14 13  1  0  0  0  0
 15 14  2  0  0  0  0
 16  7  1  0  0  0  0
 17  9  1  0  0  0  0
 18 13  1  0  0  0  0
 19  3  1  0  0  0  0
M  END
