163
 OpenBabel10141417483D

 31 32  0  0  1  0  0  0  0  0999 V2000
  -10.3139    3.9401   -4.0370 O   0  0  0  0  0  0  0  0  0  0  0  0
  -13.5083    4.1483   -8.5141 O   0  0  0  0  0  0  0  0  0  0  0  0
   -8.9194    3.5597   -4.2731 C   0  0  2  0  0  0  0  0  0  0  0  0
   -8.1604    3.6821   -2.9178 C   0  0  0  0  0  0  0  0  0  0  0  0
   -8.3173    4.6007   -5.2268 C   0  0  0  0  0  0  0  0  0  0  0  0
   -8.6731    2.8301   -1.7453 C   0  0  0  0  0  0  0  0  0  0  0  0
   -7.9289    4.2340    0.3873 C   0  0  1  0  0  0  0  0  0  0  0  0
   -7.8893    2.9034   -0.4040 C   0  0  0  0  0  0  0  0  0  0  0  0
   -9.0088    4.5146   -6.5893 C   0  0  0  0  0  0  0  0  0  0  0  0
   -7.1703    4.2425    1.7522 C   0  0  0  0  0  0  0  0  0  0  0  0
   -8.8388    2.1258   -4.7900 C   0  0  0  0  0  0  0  0  0  0  0  0
  -10.5091    4.3880   -6.4330 C   0  0  0  0  0  0  0  0  0  0  0  0
   -7.6813    3.4759    2.9940 C   0  0  0  0  0  0  0  0  0  0  0  0
  -11.0629    4.1541   -5.1775 C   0  0  0  0  0  0  0  0  0  0  0  0
   -7.5592    1.9471    2.9931 C   0  0  0  0  0  0  0  0  0  0  0  0
   -8.0891    1.2043    4.2740 C   0  0  1  0  0  0  0  0  0  0  0  0
   -7.3130    5.3782   -0.4431 C   0  0  0  0  0  0  0  0  0  0  0  0
   -7.3499    1.5915    5.5826 C   0  0  0  0  0  0  0  0  0  0  0  0
  -11.3091    4.4511   -7.5868 C   0  0  0  0  0  0  0  0  0  0  0  0
  -12.4762    4.1204   -4.9920 C   0  0  0  0  0  0  0  0  0  0  0  0
   -7.6948    0.8732    6.9210 C   0  0  0  0  0  0  0  0  0  0  0  0
  -13.2770    4.1226   -6.1438 C   0  0  0  0  0  0  0  0  0  0  0  0
   -9.6046    1.3490    4.3773 C   0  0  0  0  0  0  0  0  0  0  0  0
  -12.7058    4.2526   -7.4046 C   0  0  0  0  0  0  0  0  0  0  0  0
   -9.0619    1.1154    7.6010 C   0  0  0  0  0  0  0  0  0  0  0  0
   -9.2346    0.3555    8.9521 C   0  0  0  0  0  0  0  0  0  0  0  0
  -10.7193    4.6481   -8.9570 C   0  0  0  0  0  0  0  0  0  0  0  0
  -13.0327    3.9874   -3.6027 C   0  0  0  0  0  0  0  0  0  0  0  0
  -14.7774    3.9411   -6.0013 C   0  0  0  0  0  0  0  0  0  0  0  0
   -8.2301    0.7571   10.0358 C   0  0  0  0  0  0  0  0  0  0  0  0
  -10.6538    0.5305    9.5173 C   0  0  0  0  0  0  0  0  0  0  0  0
  1  3  1  0  0  0  0
  1 14  1  0  0  0  0
  2 24  1  0  0  0  0
  3  5  1  0  0  0  0
  3 11  1  6  0  0  0
  3  4  1  0  0  0  0
  4  6  1  0  0  0  0
  5  9  1  0  0  0  0
  6  8  1  0  0  0  0
  7  8  1  6  0  0  0
  7 10  1  0  0  0  0
  7 17  1  0  0  0  0
  9 12  1  0  0  0  0
 10 13  1  0  0  0  0
 12 14  2  0  0  0  0
 12 19  1  0  0  0  0
 13 15  1  0  0  0  0
 14 20  1  0  0  0  0
 16 15  1  6  0  0  0
 16 18  1  0  0  0  0
 16 23  1  0  0  0  0
 18 21  1  0  0  0  0
 19 24  2  0  0  0  0
 19 27  1  0  0  0  0
 20 22  2  0  0  0  0
 20 28  1  0  0  0  0
 21 25  1  0  0  0  0
 22 24  1  0  0  0  0
 22 29  1  0  0  0  0
 25 26  1  0  0  0  0
 26 30  1  0  0  0  0
 26 31  1  0  0  0  0
M  END
