
 OpenBabel10141417493D

 19 19  0  0  0  0  0  0  0  0999 V2000
    2.5177   -0.0027    1.3498 O   0  0  0  0  0  0  0  0  0  0  0  0
    8.2555    1.7759   -6.0186 O   0  0  0  0  0  0  0  0  0  0  0  0
   10.7792    2.5655   -6.0263 O   0  0  0  0  0  0  0  0  0  0  0  0
    0.5302   -0.2597    0.1646 N   0  0  0  0  0  0  0  0  0  0  0  0
   10.2054    1.9892   -4.8681 N   0  0  0  0  0  0  0  0  0  0  0  0
    4.6500    0.9725   -2.2702 C   0  0  0  0  0  0  0  0  0  0  0  0
    6.1580    0.6619   -2.3483 C   0  0  0  0  0  0  0  0  0  0  0  0
    3.9871    0.3874   -1.0146 C   0  0  0  0  0  0  0  0  0  0  0  0
    6.8018    1.2628   -3.6083 C   0  0  0  0  0  0  0  0  0  0  0  0
    2.4798    0.6807   -0.9485 C   0  0  0  0  0  0  0  0  0  0  0  0
    8.3076    0.9832   -3.7186 C   0  0  0  0  0  0  0  0  0  0  0  0
    1.8637    0.1043    0.3253 C   0  0  0  0  0  0  0  0  0  0  0  0
    8.8880    1.6095   -4.9774 C   0  0  0  0  0  0  0  0  0  0  0  0
   -0.2995   -0.8307    1.1562 C   0  0  0  0  0  0  0  0  0  0  0  0
   -0.0175   -0.7664    2.5216 C   0  0  0  0  0  0  0  0  0  0  0  0
   -1.4749   -1.4745    0.7416 C   0  0  0  0  0  0  0  0  0  0  0  0
   -0.9023   -1.3040    3.4605 C   0  0  0  0  0  0  0  0  0  0  0  0
   -2.3481   -2.0364    1.6805 C   0  0  0  0  0  0  0  0  0  0  0  0
   -2.0682   -1.9377    3.0412 C   0  0  0  0  0  0  0  0  0  0  0  0
  1 12  2  0  0  0  0
  2 13  2  0  0  0  0
  3  5  1  0  0  0  0
  4 12  1  0  0  0  0
  4 14  1  0  0  0  0
  5 13  1  0  0  0  0
  6  7  1  0  0  0  0
  6  8  1  0  0  0  0
  7  9  1  0  0  0  0
  8 10  1  0  0  0  0
  9 11  1  0  0  0  0
 10 12  1  0  0  0  0
 11 13  1  0  0  0  0
 14 15  2  0  0  0  0
 14 16  1  0  0  0  0
 15 17  1  0  0  0  0
 16 18  2  0  0  0  0
 17 19  2  0  0  0  0
 18 19  1  0  0  0  0
M  END
