
 OpenBabel10141417493D

 23 25  0  0  0  0  0  0  0  0999 V2000
    0.5201    2.8573   -1.3378 C   0  0  0  0  0  0  0  0  0  0  0  0
   -0.7204    3.4631   -1.1129 C   0  0  0  0  0  0  0  0  0  0  0  0
   -1.7433    2.7556   -0.4849 C   0  0  0  0  0  0  0  0  0  0  0  0
   -1.5236    1.4447   -0.0722 C   0  0  0  0  0  0  0  0  0  0  0  0
    0.7495    1.5288   -0.9502 C   0  0  0  0  0  0  0  0  0  0  0  0
   -0.2814    0.8555   -0.3057 C   0  0  0  0  0  0  0  0  0  0  0  0
    2.2301   -0.3995   -0.6175 C   0  0  0  0  0  0  0  0  0  0  0  0
    3.6573   -2.0188   -1.9308 C   0  0  0  0  0  0  0  0  0  0  0  0
    3.5566   -1.1580   -0.6676 C   0  0  3  0  0  0  0  0  0  0  0  0
    4.8212   -0.2958   -0.4320 C   0  0  0  0  0  0  0  0  0  0  0  0
    2.0198    0.8266   -1.1371 C   0  0  0  0  0  0  0  0  0  0  0  0
    3.0014    1.4703   -1.8607 O   0  0  0  0  0  0  0  0  0  0  0  0
   -0.1002   -0.4522    0.1717 O   0  0  0  0  0  0  0  0  0  0  0  0
    1.1232   -1.1047    0.0900 C   0  0  0  0  0  0  0  0  0  0  0  0
    1.2571   -2.2280    0.5699 O   0  0  0  0  0  0  0  0  0  0  0  0
    4.1189   -1.5116   -3.1552 C   0  0  0  0  0  0  0  0  0  0  0  0
    3.2570   -3.3660   -1.8800 C   0  0  0  0  0  0  0  0  0  0  0  0
    3.3560   -4.1895   -3.0037 C   0  0  0  0  0  0  0  0  0  0  0  0
    3.8472   -3.6779   -4.2009 C   0  0  0  0  0  0  0  0  0  0  0  0
    4.2194   -2.3379   -4.2791 C   0  0  0  0  0  0  0  0  0  0  0  0
    4.7857    0.3733    0.9286 C   0  0  0  0  0  0  0  0  0  0  0  0
    4.7153   -0.2876    1.9654 O   0  0  0  0  0  0  0  0  0  0  0  0
    4.8618    1.8780    0.9762 C   0  0  0  0  0  0  0  0  0  0  0  0
  1  2  2  0  0  0  0
  1  5  1  0  0  0  0
  2  3  1  0  0  0  0
  3  4  2  0  0  0  0
  4  6  1  0  0  0  0
  6  5  2  0  0  0  0
  6 13  1  0  0  0  0
  7  9  1  0  0  0  0
  8 16  2  0  0  0  0
  8 17  1  0  0  0  0
  9  8  1  0  0  0  0
  9 10  1  0  0  0  0
 10 21  1  0  0  0  0
 11  5  1  0  0  0  0
 11  7  2  0  0  0  0
 11 12  1  0  0  0  0
 13 14  1  0  0  0  0
 14  7  1  0  0  0  0
 14 15  2  0  0  0  0
 17 18  2  0  0  0  0
 18 19  1  0  0  0  0
 19 20  2  0  0  0  0
 20 16  1  0  0  0  0
 21 22  2  0  0  0  0
 21 23  1  0  0  0  0
M  END
