137
 OpenBabel10141417503D

 42 43  0  0  1  0  0  0  0  0999 V2000
   21.8273  -24.6839   14.3690 O   0  0  0  0  0  0  0  0  0  0  0  0
   11.2097   -1.9895    4.2752 O   0  0  0  0  0  0  0  0  0  0  0  0
   18.6730  -24.1051   13.6321 C   0  0  0  0  0  0  0  0  0  0  0  0
   18.7302  -23.5439   12.1646 C   0  0  3  0  0  0  0  0  0  0  0  0
   19.7650  -23.4117   14.4885 C   0  0  0  0  0  0  0  0  0  0  0  0
   21.1773  -23.5120   13.8913 C   0  0  3  0  0  0  0  0  0  0  0  0
   20.1476  -23.5983   11.5952 C   0  0  0  0  0  0  0  0  0  0  0  0
   13.9492   -3.3044    4.8660 C   0  0  0  0  0  0  0  0  0  0  0  0
   18.8920  -25.6381   13.6111 C   0  0  0  0  0  0  0  0  0  0  0  0
   17.3016  -23.8725   14.3045 C   0  0  0  0  0  0  0  0  0  0  0  0
   13.5620   -1.7999    4.8787 C   0  0  0  0  0  0  0  0  0  0  0  0
   21.2307  -23.5777   12.3962 C   0  0  0  0  0  0  0  0  0  0  0  0
   12.1165   -1.5313    5.2750 C   0  0  3  0  0  0  0  0  0  0  0  0
   13.4298   -4.0121    6.1311 C   0  0  0  0  0  0  0  0  0  0  0  0
   18.1686  -22.1366   12.0272 C   0  0  0  0  0  0  0  0  0  0  0  0
   11.7773   -2.1686    6.6214 C   0  0  0  0  0  0  0  0  0  0  0  0
   12.4554   -3.4911    6.9187 C   0  0  0  0  0  0  0  0  0  0  0  0
   13.3542   -4.0155    3.6294 C   0  0  0  0  0  0  0  0  0  0  0  0
   15.4917   -3.3413    4.7244 C   0  0  0  0  0  0  0  0  0  0  0  0
   20.2692  -23.6329   10.0964 C   0  0  0  0  0  0  0  0  0  0  0  0
   18.8956  -21.0093   12.1061 C   0  0  0  0  0  0  0  0  0  0  0  0
   14.0238   -5.3079    6.4301 C   0  0  0  0  0  0  0  0  0  0  0  0
   11.9088   -4.1313    8.1775 C   0  0  0  0  0  0  0  0  0  0  0  0
   18.3735  -19.6713   11.9428 C   0  0  0  0  0  0  0  0  0  0  0  0
   13.3077   -6.4413    6.4744 C   0  0  0  0  0  0  0  0  0  0  0  0
   18.6455  -18.7803   13.1235 C   0  0  0  0  0  0  0  0  0  0  0  0
   13.8531   -7.7075    6.9100 C   0  0  0  0  0  0  0  0  0  0  0  0
   17.7339  -19.3339   10.8099 C   0  0  0  0  0  0  0  0  0  0  0  0
   13.2008   -8.2705    8.1471 C   0  0  0  0  0  0  0  0  0  0  0  0
   14.8248   -8.3037    6.1970 C   0  0  0  0  0  0  0  0  0  0  0  0
   17.1993  -18.0324   10.5147 C   0  0  0  0  0  0  0  0  0  0  0  0
   15.4380   -9.5561    6.5355 C   0  0  0  0  0  0  0  0  0  0  0  0
   16.1683  -17.8542    9.6762 C   0  0  0  0  0  0  0  0  0  0  0  0
   15.6178  -16.5404    9.3875 C   0  0  0  0  0  0  0  0  0  0  0  0
   15.9532  -10.3872    5.6130 C   0  0  0  0  0  0  0  0  0  0  0  0
   16.5423  -11.6764    5.9308 C   0  0  0  0  0  0  0  0  0  0  0  0
   14.1529  -16.3958    9.7113 C   0  0  0  0  0  0  0  0  0  0  0  0
   16.3944  -15.6122    8.8212 C   0  0  0  0  0  0  0  0  0  0  0  0
   16.0607  -12.4024    6.9529 C   0  0  0  0  0  0  0  0  0  0  0  0
   17.6364  -12.1120    4.9840 C   0  0  0  0  0  0  0  0  0  0  0  0
   15.9546  -14.3097    8.4301 C   0  0  0  0  0  0  0  0  0  0  0  0
   16.5355  -13.6816    7.4058 C   0  0  0  0  0  0  0  0  0  0  0  0
  1  6  1  0  0  0  0
  2 13  1  0  0  0  0
  3  4  1  0  0  0  0
  3  5  1  0  0  0  0
  3  9  1  0  0  0  0
  3 10  1  0  0  0  0
  4  7  1  0  0  0  0
  4 15  1  0  0  0  0
  5  6  1  0  0  0  0
  6 12  1  0  0  0  0
  7 12  2  0  0  0  0
  7 20  1  0  0  0  0
  8 11  1  0  0  0  0
  8 14  1  0  0  0  0
  8 18  1  0  0  0  0
  8 19  1  0  0  0  0
 11 13  1  0  0  0  0
 13 16  1  0  0  0  0
 14 17  2  0  0  0  0
 14 22  1  0  0  0  0
 15 21  2  0  0  0  0
 16 17  1  0  0  0  0
 17 23  1  0  0  0  0
 21 24  1  0  0  0  0
 22 25  2  0  0  0  0
 24 26  1  0  0  0  0
 24 28  2  0  0  0  0
 25 27  1  0  0  0  0
 27 29  1  0  0  0  0
 27 30  2  0  0  0  0
 28 31  1  0  0  0  0
 30 32  1  0  0  0  0
 31 33  2  0  0  0  0
 32 35  2  0  0  0  0
 33 34  1  0  0  0  0
 34 37  1  0  0  0  0
 34 38  2  0  0  0  0
 35 36  1  0  0  0  0
 36 39  2  0  0  0  0
 36 40  1  0  0  0  0
 38 41  1  0  0  0  0
 39 42  1  0  0  0  0
 41 42  2  0  0  0  0
M  END
