
 OpenBabel10141417533D

 34 36  0  0  1  0  0  0  0  0999 V2000
    1.9246    0.9563   -0.8247 O   0  0  0  0  0  0  0  0  0  0  0  0
    3.0648   -4.0918   -1.4607 O   0  0  0  0  0  0  0  0  0  0  0  0
    7.0250   -0.0783   -3.2595 O   0  0  0  0  0  0  0  0  0  0  0  0
    7.9540    1.9054   -2.5860 O   0  0  0  0  0  0  0  0  0  0  0  0
   -5.1147   -4.6698    5.2467 O   0  0  0  0  0  0  0  0  0  0  0  0
    3.2810   -0.8332   -1.2305 N   0  0  0  0  0  0  0  0  0  0  0  0
    5.5157    1.0489   -0.8063 N   0  0  0  0  0  0  0  0  0  0  0  0
    1.2859   -3.3895   -0.2337 N   0  0  0  0  0  0  0  0  0  0  0  0
   -3.0552   -3.2151    5.3573 N   0  0  0  0  0  0  0  0  0  0  0  0
   -4.1823   -4.9187    4.2223 N   0  0  0  0  0  0  0  0  0  0  0  0
    4.3113    0.9165    1.4274 C   0  0  0  0  0  0  0  0  0  0  0  0
    4.2316    1.2431   -0.1195 C   0  0  2  0  0  0  0  0  0  0  0  0
    5.4181    1.6773    2.2109 C   0  0  0  0  0  0  0  0  0  0  0  0
    4.4337   -0.5727    1.7938 C   0  0  0  0  0  0  0  0  0  0  0  0
    6.8441    1.1407    2.0273 C   0  0  0  0  0  0  0  0  0  0  0  0
    5.8082   -1.1458    1.4755 C   0  0  0  0  0  0  0  0  0  0  0  0
    2.2648   -1.7490   -1.8189 C   0  0  1  0  0  0  0  0  0  0  0  0
    6.9289   -0.3758    2.1732 C   0  0  0  0  0  0  0  0  0  0  0  0
    4.2715   -1.3168   -2.1935 C   0  0  0  0  0  0  0  0  0  0  0  0
    3.0854   -1.6097   -3.1125 C   0  0  0  0  0  0  0  0  0  0  0  0
    3.0573    0.4618   -0.7978 C   0  0  0  0  0  0  0  0  0  0  0  0
    2.2664   -3.1938   -1.1770 C   0  0  0  0  0  0  0  0  0  0  0  0
    5.6139    1.5658   -2.1692 C   0  0  0  0  0  0  0  0  0  0  0  0
    6.9858    1.1761   -2.7045 C   0  0  0  0  0  0  0  0  0  0  0  0
    1.1829   -4.6348    0.4876 C   0  0  0  0  0  0  0  0  0  0  0  0
    0.0774   -4.5613    1.5046 C   0  0  0  0  0  0  0  0  0  0  0  0
    0.3415   -4.1196    2.8078 C   0  0  0  0  0  0  0  0  0  0  0  0
   -1.2417   -4.8691    1.1458 C   0  0  0  0  0  0  0  0  0  0  0  0
    8.2820   -0.4837   -3.8428 C   0  0  0  0  0  0  0  0  0  0  0  0
   -0.6938   -3.9898    3.7387 C   0  0  0  0  0  0  0  0  0  0  0  0
   -2.2764   -4.7499    2.0789 C   0  0  0  0  0  0  0  0  0  0  0  0
   -2.0091   -4.3021    3.3783 C   0  0  0  0  0  0  0  0  0  0  0  0
    8.3934    0.1507   -5.2149 C   0  0  0  0  0  0  0  0  0  0  0  0
   -3.1343   -4.1526    4.3544 C   0  0  0  0  0  0  0  0  0  0  0  0
  1 21  2  0  0  0  0
  2 22  2  0  0  0  0
  3 24  1  0  0  0  0
  3 29  1  0  0  0  0
  4 24  2  0  0  0  0
  5 10  1  0  0  0  0
  6 17  1  0  0  0  0
  6 19  1  0  0  0  0
  6 21  1  0  0  0  0
  7 23  1  0  0  0  0
  8 22  1  0  0  0  0
  8 25  1  0  0  0  0
  9 34  1  0  0  0  0
 10 34  2  0  0  0  0
 11 13  1  0  0  0  0
 11 14  1  0  0  0  0
 12 21  1  6  0  0  0
 12 11  1  0  0  0  0
 12  7  1  0  0  0  0
 13 15  1  0  0  0  0
 14 16  1  0  0  0  0
 15 18  1  0  0  0  0
 16 18  1  0  0  0  0
 17 20  1  0  0  0  0
 17 22  1  1  0  0  0
 19 20  1  0  0  0  0
 23 24  1  0  0  0  0
 25 26  1  0  0  0  0
 26 27  2  0  0  0  0
 26 28  1  0  0  0  0
 27 30  1  0  0  0  0
 28 31  2  0  0  0  0
 29 33  1  0  0  0  0
 30 32  2  0  0  0  0
 31 32  1  0  0  0  0
 32 34  1  0  0  0  0
M  END
