962
 OpenBabel10141417483D

 23 25  0  0  0  0  0  0  0  0999 V2000
    2.8694    0.9230   -0.7114 O   0  0  0  0  0  0  0  0  0  0  0  0
    3.1332   -0.9724    0.6562 N   0  0  0  0  0  0  0  0  0  0  0  0
    7.6749    2.6789    1.2214 N   0  0  0  0  0  0  0  0  0  0  0  0
    7.3716    2.7124    2.5517 N   0  0  0  0  0  0  0  0  0  0  0  0
    8.7831    4.0551   -0.4501 N   0  0  0  0  0  0  0  0  0  0  0  0
    9.6001    6.9370    2.2250 N   0  0  0  0  0  0  0  0  0  0  0  0
    6.6976    0.4124    0.6386 C   0  0  0  0  0  0  0  0  0  0  0  0
    4.5820   -0.8683    0.7991 C   0  0  0  0  0  0  0  0  0  0  0  0
    7.4063    1.6625    0.2804 C   0  0  0  0  0  0  0  0  0  0  0  0
    5.2933    0.3215    0.5284 C   0  0  0  0  0  0  0  0  0  0  0  0
    2.4584   -2.1371    1.2695 C   0  0  0  0  0  0  0  0  0  0  0  0
    7.4142   -0.7143    1.0458 C   0  0  0  0  0  0  0  0  0  0  0  0
    5.3470   -1.9676    1.2264 C   0  0  0  0  0  0  0  0  0  0  0  0
    8.3607    3.8501    0.8358 C   0  0  0  0  0  0  0  0  0  0  0  0
    6.7399   -1.8950    1.3473 C   0  0  0  0  0  0  0  0  0  0  0  0
    7.8154    1.8309   -0.9919 C   0  0  0  0  0  0  0  0  0  0  0  0
    2.3949   -0.0287   -0.0879 C   0  0  0  0  0  0  0  0  0  0  0  0
    2.3246   -3.3278    0.3239 C   0  0  0  0  0  0  0  0  0  0  0  0
    8.4753    4.6231    1.9708 C   0  0  0  0  0  0  0  0  0  0  0  0
    8.5187    3.1081   -1.2929 C   0  0  0  0  0  0  0  0  0  0  0  0
    7.8546    3.8792    2.9823 C   0  0  0  0  0  0  0  0  0  0  0  0
    0.8926   -0.2101   -0.1485 C   0  0  0  0  0  0  0  0  0  0  0  0
    9.1001    5.9013    2.0853 C   0  0  0  0  0  0  0  0  0  0  0  0
  1 17  2  0  0  0  0
  2  8  1  0  0  0  0
  2 11  1  0  0  0  0
  2 17  1  0  0  0  0
  3  4  1  0  0  0  0
  3  9  1  0  0  0  0
  3 14  1  0  0  0  0
  4 21  2  0  0  0  0
  5 14  1  0  0  0  0
  5 20  2  0  0  0  0
  6 23  3  0  0  0  0
  7  9  1  0  0  0  0
  7 10  2  0  0  0  0
  7 12  1  0  0  0  0
  8 10  1  0  0  0  0
  8 13  2  0  0  0  0
  9 16  2  0  0  0  0
 11 18  1  0  0  0  0
 12 15  2  0  0  0  0
 13 15  1  0  0  0  0
 14 19  2  0  0  0  0
 16 20  1  0  0  0  0
 17 22  1  0  0  0  0
 19 21  1  0  0  0  0
 19 23  1  0  0  0  0
M  END
