495
 OpenBabel10141417563D

 19 20  0  0  1  0  0  0  0  0999 V2000
   -0.7193   -0.9286   -0.1143 O   0  0  0  0  0  0  0  0  0  0  0  0
   -2.0260    1.0811   -1.8093 O   0  0  0  0  0  0  0  0  0  0  0  0
    3.4065   -1.4572   -0.5470 O   0  0  0  0  0  0  0  0  0  0  0  0
    2.8553   -2.5011   -4.9061 O   0  0  0  0  0  0  0  0  0  0  0  0
    1.2588   -1.3434   -1.4092 N   0  0  0  0  0  0  0  0  0  0  0  0
    0.0810    2.3028    1.3020 N   0  0  0  0  0  0  0  0  0  0  0  0
    3.1028   -1.9167   -2.7292 N   0  0  0  0  0  0  0  0  0  0  0  0
   -0.3441    3.4233    0.9908 N   0  3  0  0  0  0  0  0  0  0  0  0
   -0.7488    4.4527    0.7069 N   0  5  0  0  0  0  0  0  0  0  0  0
    0.0803    1.2866    0.2411 C   0  0  1  0  0  0  0  0  0  0  0  0
    0.7196   -0.9987   -0.0899 C   0  0  1  0  0  0  0  0  0  0  0  0
    1.2250    0.3276    0.4705 C   0  0  0  0  0  0  0  0  0  0  0  0
   -1.1320    0.3701    0.3512 C   0  0  1  0  0  0  0  0  0  0  0  0
   -2.3484    0.8676   -0.4358 C   0  0  0  0  0  0  0  0  0  0  0  0
    0.4313   -1.5788   -2.4921 C   0  0  0  0  0  0  0  0  0  0  0  0
    2.6299   -1.5625   -1.4945 C   0  0  0  0  0  0  0  0  0  0  0  0
    0.8921   -1.9765   -3.6846 C   0  0  0  0  0  0  0  0  0  0  0  0
    2.3524   -2.1535   -3.8431 C   0  0  0  0  0  0  0  0  0  0  0  0
    0.0268   -2.2677   -4.8655 C   0  0  0  0  0  0  0  0  0  0  0  0
  1 11  1  0  0  0  0
  1 13  1  0  0  0  0
  2 14  1  0  0  0  0
  3 16  2  0  0  0  0
  4 18  2  0  0  0  0
  5 15  1  0  0  0  0
  5 16  1  0  0  0  0
  6  8  2  0  0  0  0
  7 16  1  0  0  0  0
  7 18  1  0  0  0  0
  8  9  2  0  0  0  0
 10 12  1  0  0  0  0
 10 13  1  0  0  0  0
 10  6  1  1  0  0  0
 11  5  1  6  0  0  0
 11 12  1  0  0  0  0
 13 14  1  6  0  0  0
 15 17  2  0  0  0  0
 17 18  1  0  0  0  0
 17 19  1  0  0  0  0
M  CHG  2   8   1   9  -1
M  END
