1198
 OpenBabel10141417493D

 27 30  0  0  1  0  0  0  0  0999 V2000
    0.9577   -1.1828   -2.8386 Cl  0  0  0  0  0  0  0  0  0  0  0  0
    7.4670    1.2115   -0.7981 O   0  0  0  0  0  0  0  0  0  0  0  0
    5.4026    2.1004   -1.2179 O   0  0  0  0  0  0  0  0  0  0  0  0
    7.2090   -3.1159   -1.3008 O   0  0  0  0  0  0  0  0  0  0  0  0
    6.6559    2.8342    0.5641 N   0  0  0  0  0  0  0  0  0  0  0  0
    7.9989    5.4105    0.8208 N   0  0  0  0  0  0  0  0  0  0  0  0
    6.6634   -0.8441   -1.5706 N   0  0  0  0  0  0  0  0  0  0  0  0
    9.8292    0.5747   -2.6738 N   0  0  0  0  0  0  0  0  0  0  0  0
    9.9376   -2.2478   -2.1272 N   0  0  0  0  0  0  0  0  0  0  0  0
    4.8270   -0.2675   -2.9008 N   0  0  0  0  0  0  0  0  0  0  0  0
    5.8483    4.0391    0.7681 C   0  0  0  0  0  0  0  0  0  0  0  0
    7.9783    2.8971    1.1814 C   0  0  0  0  0  0  0  0  0  0  0  0
    6.6233    5.2846    0.2759 C   0  0  0  0  0  0  0  0  0  0  0  0
    8.7343    4.1336    0.6601 C   0  0  0  0  0  0  0  0  0  0  0  0
    7.3673    0.3660   -1.9468 C   0  0  3  0  0  0  0  0  0  0  0  0
    6.4284    2.0409   -0.5432 C   0  0  0  0  0  0  0  0  0  0  0  0
    7.9836    5.8414    2.2175 C   0  0  0  0  0  0  0  0  0  0  0  0
    8.7621   -0.1400   -2.2409 C   0  0  0  0  0  0  0  0  0  0  0  0
    8.8314   -1.4919   -1.9704 C   0  0  0  0  0  0  0  0  0  0  0  0
    7.4998   -1.9596   -1.5438 C   0  0  0  0  0  0  0  0  0  0  0  0
    5.2967   -0.9600   -1.8399 C   0  0  0  0  0  0  0  0  0  0  0  0
    4.4785   -1.7473   -1.0376 C   0  0  0  0  0  0  0  0  0  0  0  0
   10.9604   -0.1660   -2.8218 C   0  0  0  0  0  0  0  0  0  0  0  0
   11.0114   -1.5379   -2.5590 C   0  0  0  0  0  0  0  0  0  0  0  0
    3.1142   -1.8101   -1.3291 C   0  0  0  0  0  0  0  0  0  0  0  0
    3.5067   -0.3642   -3.1762 C   0  0  0  0  0  0  0  0  0  0  0  0
    2.6201   -1.1127   -2.4241 C   0  0  0  0  0  0  0  0  0  0  0  0
  1 27  1  0  0  0  0
  2 15  1  0  0  0  0
  2 16  1  0  0  0  0
  3 16  2  0  0  0  0
  4 20  2  0  0  0  0
  5 11  1  0  0  0  0
  5 12  1  0  0  0  0
  5 16  1  0  0  0  0
  6 13  1  0  0  0  0
  6 14  1  0  0  0  0
  6 17  1  0  0  0  0
  7 15  1  0  0  0  0
  7 20  1  0  0  0  0
  7 21  1  0  0  0  0
  8 18  2  0  0  0  0
  8 23  1  0  0  0  0
  9 19  2  0  0  0  0
  9 24  1  0  0  0  0
 10 21  2  0  0  0  0
 10 26  1  0  0  0  0
 11 13  1  0  0  0  0
 12 14  1  0  0  0  0
 15 18  1  0  0  0  0
 18 19  1  0  0  0  0
 19 20  1  0  0  0  0
 21 22  1  0  0  0  0
 22 25  2  0  0  0  0
 23 24  2  0  0  0  0
 25 27  1  0  0  0  0
 26 27  2  0  0  0  0
M  END
