A_674563
  SciTegic01111223113D

 27 30  0  0  0  0            999 V2000
    3.6417   -1.4148   -0.0002 C   0  0
    2.1644   -1.6489   -0.0003 C   0  0
    1.1838   -0.6838   -0.0002 C   0  0
    1.2509    0.6987    0.0000 C   0  0
    0.0306    1.3739    0.0000 C   0  0
   -1.1802    0.6714   -0.0001 C   0  0
   -1.2137   -0.7234   -0.0003 C   0  0
    0.0084   -1.3737   -0.0003 C   0  0
    0.2800   -2.6762   -0.0005 N   0  0
    1.5521   -2.8356   -0.0004 N   0  0
    0.0141    2.8401    0.0001 C   0  0
    1.2047    3.5503    0.0002 C   0  0
    1.1456    4.9376    0.0003 C   0  0
   -0.0916    5.5681    0.0003 C   0  0
   -1.2156    4.8564    0.0002 N   0  0
   -1.1938    3.5292    0.0001 C   0  0
    2.3249    5.6938    0.0005 O   0  0
    3.4872    4.8472    0.0043 C   0  0
    4.7607    5.7232   -0.0490 C   0  0
    6.0157    4.8085   -0.0446 C   0  0
    7.3094    5.6050   -0.0253 C   0  0
    7.2906    6.9913    0.0639 C   0  0
    8.4850    7.7012    0.1193 C   0  0
    9.6974    7.0238    0.0856 C   0  0
    9.7169    5.6364   -0.0034 C   0  0
    8.5237    4.9271   -0.0588 C   0  0
    4.7236    6.5290   -1.2808 N   0  0
  1  2  1  0
  2  3  2  3
  3  4  1  0
  4  5  2  3
  5  6  1  0
  6  7  2  3
  7  8  1  0
  8  3  1  0
  8  9  2  3
  9 10  1  0
 10  2  1  0
  5 11  1  0
 11 12  2  3
 12 13  1  0
 13 14  2  3
 14 15  1  0
 15 16  2  3
 16 11  1  0
 13 17  1  0
 17 18  1  0
 18 19  1  0
 19 20  1  0
 20 21  1  0
 21 22  2  3
 22 23  1  0
 23 24  2  3
 24 25  1  0
 25 26  2  3
 26 21  1  0
 19 27  1  0
M  END
