AC220
  SciTegic01111223113D

 40 45  0  0  0  0            999 V2000
    5.9070  -12.8589    0.1002 C   0  0
    7.4013  -13.2281    0.0000 C   0  0
    7.7952  -14.1113    1.1977 C   0  0
    7.6522  -14.0056   -1.3036 C   0  0
    8.2452  -11.9892   -0.0006 C   0  0
    7.7520  -10.6972   -0.0007 C   0  0
    8.9258   -9.9873   -0.0003 C   0  0
    9.9575  -10.8097   -0.0001 N   0  0
    9.5408  -11.9754   -0.0003 O   0  0
    9.0533   -8.5676   -0.0002 N   0  0
    7.9612   -7.6562   -0.0003 C   0  0
    6.7937   -8.0608   -0.0004 O   0  0
    8.2460   -6.2660   -0.0002 N   0  0
    7.2551   -5.2491   -0.0002 C   0  0
    5.9084   -5.5927   -0.0003 C   0  0
    4.9379   -4.5979   -0.0003 C   0  0
    5.3146   -3.2600   -0.0003 C   0  0
    6.6614   -2.9165   -0.0002 C   0  0
    7.6317   -3.9113   -0.0002 C   0  0
    4.2936   -2.2118   -0.0003 C   0  0
    2.9153   -2.4558   -0.0003 C   0  0
    2.4112   -1.2359   -0.0003 N   0  0
    1.1840   -0.7367   -0.0002 C   0  0
    1.2174    0.6504   -0.0001 C   0  0
    0.0474    1.3942    0.0000 C   0  0
   -1.1624    0.7021    0.0000 C   0  0
   -1.1895   -0.6946   -0.0001 C   0  0
   -0.0108   -1.4371   -0.0002 C   0  0
   -2.3624    1.4126    0.0001 O   0  0
   -2.1136    2.8226    0.0002 C   0  0
   -3.4594    3.5758    0.0005 C   0  0
   -3.2272    5.0311    0.0006 N   0  0
   -2.4709    5.4173   -1.1969 C   0  0
   -2.2316    6.9391   -1.1746 C   0  0
   -1.4890    7.2932    0.0005 O   0  0
   -2.2304    6.9389    1.1763 C   0  0
   -2.4706    5.4171    1.1980 C   0  0
    2.7977    1.2432   -0.0001 S   0  0
    3.3615   -0.3384   -0.0002 C   0  0
    4.5594   -0.9004   -0.0002 N   0  0
  1  2  1  0
  2  3  1  0
  2  4  1  0
  2  5  1  0
  5  6  2  3
  6  7  1  0
  7  8  2  3
  8  9  1  0
  9  5  1  0
  7 10  1  0
 10 11  1  0
 11 12  2  0
 11 13  1  0
 13 14  1  0
 14 15  2  3
 15 16  1  0
 16 17  2  3
 17 18  1  0
 18 19  2  3
 19 14  1  0
 17 20  1  0
 20 21  2  3
 21 22  1  0
 22 23  1  0
 23 24  2  3
 24 25  1  0
 25 26  2  3
 26 27  1  0
 27 28  2  3
 28 23  1  0
 26 29  1  0
 29 30  1  0
 30 31  1  0
 31 32  1  0
 32 33  1  0
 33 34  1  0
 34 35  1  0
 35 36  1  0
 36 37  1  0
 37 32  1  0
 24 38  1  0
 38 39  1  0
 39 22  1  0
 39 40  2  3
 40 20  1  0
M  END
