AZD_2171
  SciTegic01111223113D

 33 37  0  0  0  0            999 V2000
    9.6219   -0.0008   -0.0002 C   0  0
    8.1254   -0.0179   -0.0002 C   0  0
    7.3544   -1.1814   -0.0003 C   0  0
    6.0579   -0.6984   -0.0002 C   0  0
    6.1048    0.6718    0.0000 C   0  0
    7.3669    1.0819    0.0000 N   0  0
    4.9493    1.4373    0.0001 C   0  0
    3.7320    0.7568    0.0000 C   0  0
    3.6793   -0.6411   -0.0002 C   0  0
    4.8574   -1.3901   -0.0003 C   0  0
    4.8250   -2.7279   -0.0005 F   0  0
    2.4431   -1.3785   -0.0003 O   0  0
    1.1922   -0.6835   -0.0002 C   0  0
    1.1639    0.6429    0.0000 N   0  0
    0.0064    1.2970    0.0001 C   0  0
   -1.1561    0.6522    0.0000 N   0  0
   -1.1924   -0.6736   -0.0002 C   0  0
   -2.4075   -1.3468   -0.0003 C   0  0
   -2.4262   -2.7366   -0.0004 C   0  0
   -1.2328   -3.4500   -0.0005 C   0  0
   -0.0176   -2.7749   -0.0004 C   0  0
   -0.0035   -1.3858   -0.0003 C   0  0
   -1.2555   -4.8499   -0.0006 O   0  0
    0.0748   -5.3876   -0.0006 C   0  0
   -3.6481   -3.4179   -0.0005 O   0  0
   -4.7506   -2.4985   -0.0004 C   0  0
   -6.0765   -3.2882   -0.0004 C   0  0
   -7.2674   -2.3047   -0.0004 C   0  0
   -8.5459   -3.0459   -0.0004 N   0  0
   -8.6453   -3.9456    1.1808 C   0  0
   -8.3079   -5.3656    0.6513 C   0  0
   -7.7762   -5.1060   -0.7511 C   0  0
   -8.6439   -3.9245   -1.1691 C   0  0
  1  2  1  0
  2  3  2  3
  3  4  1  0
  4  5  2  3
  5  6  1  0
  6  2  1  0
  5  7  1  0
  7  8  2  3
  8  9  1  0
  9 10  2  3
 10  4  1  0
 10 11  1  0
  9 12  1  0
 12 13  1  0
 13 14  2  3
 14 15  1  0
 15 16  2  3
 16 17  1  0
 17 18  2  3
 18 19  1  0
 19 20  2  3
 20 21  1  0
 21 22  2  3
 22 17  1  0
 22 13  1  0
 20 23  1  0
 23 24  1  0
 19 25  1  0
 25 26  1  0
 26 27  1  0
 27 28  1  0
 28 29  1  0
 29 30  1  0
 30 31  1  0
 31 32  1  0
 32 33  1  0
 33 29  1  0
M  END
