BI_2536
  SciTegic01111223113D

 38 42  0  0  0  0            999 V2000
    1.7637   -1.0546   -2.2099 C   0  0
    2.2671   -1.2760   -0.7634 C   0  0
    1.2606   -0.6497    0.2164 C   0  0
    1.1966    0.8318   -0.0266 C   0  0
    2.2506    1.4676   -0.1405 O   0  0
   -0.0118    1.5121   -0.0811 N   0  0
   -1.2174    0.8311   -0.0263 C   0  0
   -2.4142    1.5309   -0.0823 C   0  0
   -3.5625    0.8676   -0.0442 N   0  0
   -3.5816   -0.4581    0.0452 C   0  0
   -2.4457   -1.1366    0.0939 N   0  0
   -1.2602   -0.5512    0.0620 C   0  0
   -0.0335   -1.3417    0.0901 N   0  0
   -0.0087   -2.8405    0.3483 C   0  0
   -0.0625   -3.1402    1.8578 C   0  0
   -1.5551   -3.0663    2.1515 C   0  0
   -2.1352   -3.9321    1.0149 C   0  0
   -1.2321   -3.6165   -0.2258 C   0  0
   -4.8086   -1.2436    0.0883 N   0  0
   -6.0763   -0.5468   -0.0004 C   0  0
   -7.2365   -1.3099    0.0527 C   0  0
   -8.4807   -0.6980   -0.0381 C   0  0
   -8.5652    0.6800   -0.1843 C   0  0
   -7.4099    1.4473   -0.2359 C   0  0
   -6.1691    0.8327   -0.1428 C   0  0
   -9.8617    1.3205   -0.2857 C   0  0
   -9.9235    2.5484   -0.4193 O   0  0
  -11.0237    0.5338   -0.2353 N   0  0
  -12.3367    1.1151   -0.3348 C   0  0
  -12.4976    1.8435   -1.6774 C   0  0
  -13.9061    2.4587   -1.7453 C   0  0
  -14.0955    3.4116   -0.6328 N   0  0
  -13.9725    2.7193    0.6659 C   0  0
  -12.5658    2.1144    0.8088 C   0  0
  -15.4334    4.0093   -0.7337 C   0  0
   -7.1383   -2.6979    0.1955 O   0  0
   -8.4410   -3.2911    0.2296 C   0  0
   -0.0092    2.9392   -0.2192 C   0  0
  1  2  1  0
  2  3  1  0
  3  4  1  0
  4  5  2  0
  4  6  1  0
  6  7  1  0
  7  8  2  3
  8  9  1  0
  9 10  2  3
 10 11  1  0
 11 12  2  3
 12  7  1  0
 12 13  1  0
 13  3  1  0
 13 14  1  0
 14 15  1  0
 15 16  1  0
 16 17  1  0
 17 18  1  0
 18 14  1  0
 10 19  1  0
 19 20  1  0
 20 21  2  3
 21 22  1  0
 22 23  2  3
 23 24  1  0
 24 25  2  3
 25 20  1  0
 23 26  1  0
 26 27  2  0
 26 28  1  0
 28 29  1  0
 29 30  1  0
 30 31  1  0
 31 32  1  0
 32 33  1  0
 33 34  1  0
 34 29  1  0
 32 35  1  0
 21 36  1  0
 36 37  1  0
  6 38  1  0
M  END
