CEP_701
  SciTegic01111223113D

 33 40  0  0  0  0            999 V2000
    3.0881   -0.3020    0.1626 C   0  0
    1.6470   -0.1364   -0.3531 C   0  0
    1.6095    0.1993   -1.8238 C   0  0
    0.1627    0.6192   -1.9575 C   0  0
   -0.0169    1.4881   -0.6674 C   0  0
    1.1024    1.0915    0.1898 O   0  0
   -1.1885    1.0441   -0.0203 N   0  0
   -2.3118    1.7239    0.2048 C   0  0
   -2.6211    3.0320   -0.1264 C   0  0
   -3.8899    3.4881    0.2299 C   0  0
   -4.8045    2.6582    0.8879 C   0  0
   -4.4842    1.3402    1.2111 C   0  0
   -3.2189    0.9067    0.8539 C   0  0
   -2.5993   -0.3210    1.0053 C   0  0
   -2.9859   -1.5357    1.5638 C   0  0
   -2.1286   -2.6183    1.5224 C   0  0
   -0.8731   -2.4655    0.9368 C   0  0
    0.1662   -3.3393    0.6920 C   0  0
    0.2722   -4.6995    0.9312 C   0  0
    1.4488   -5.3203    0.5181 C   0  0
    2.4560   -4.5954   -0.1246 C   0  0
    2.3250   -3.2281   -0.3603 C   0  0
    1.1611   -2.6057    0.0701 C   0  0
    0.7838   -1.3212   -0.0259 N   0  0
   -0.4655   -1.2465    0.4340 C   0  0
   -1.3444   -0.1829    0.4486 C   0  0
   -2.7564   -3.8589    2.1326 C   0  0
   -4.0820   -3.2904    2.5530 N   0  0
   -4.1831   -1.9259    2.1930 C   0  0
   -5.1543   -1.1986    2.4216 O   0  0
    2.5249    1.4082   -2.0796 C   0  0
    3.8808    1.0388   -1.8178 O   0  0
    1.9862   -0.8780   -2.6799 O   0  0
  1  2  1  0
  2  3  1  0
  3  4  1  0
  4  5  1  0
  5  6  1  0
  6  2  1  0
  5  7  1  0
  7  8  1  0
  8  9  2  3
  9 10  1  0
 10 11  2  3
 11 12  1  0
 12 13  2  3
 13  8  1  0
 13 14  1  0
 14 15  2  3
 15 16  1  0
 16 17  2  3
 17 18  1  0
 18 19  2  3
 19 20  1  0
 20 21  2  3
 21 22  1  0
 22 23  2  3
 23 18  1  0
 23 24  1  0
 24  2  1  0
 24 25  1  0
 25 17  1  0
 25 26  2  3
 26 14  1  0
 26  7  1  0
 16 27  1  0
 27 28  1  0
 28 29  1  0
 29 15  1  0
 29 30  2  0
  3 31  1  0
 31 32  1  0
  3 33  1  0
M  END
