CPB
 OpenBabel07091011243D

 28 31  0  0  0  0  0  0  0  0999 V2000
    5.2640    0.3530   -1.0110 C   0  0  0  0  0
    3.8030    0.2060   -0.9760 N   0  0  0  0  0
    3.2390    1.4980   -1.3820 C   0  0  0  0  0
    1.7110    1.4200   -1.3770 C   0  0  0  0  0
    1.2570    0.3590   -2.3840 C   0  0  0  0  0
    1.9360   -0.9700   -2.0440 C   0  0  0  0  0
    3.4520   -0.7680   -2.0150 C   0  0  0  0  0
   -0.2390    0.1990   -2.3070 C   0  0  0  0  0
   -0.8500   -0.0120   -1.0820 C   0  0  0  0  0
   -0.1230   -0.0650    0.0530 O   0  0  0  0  0
   -0.6850   -0.2620    1.2560 C   0  0  0  0  0
   -2.0250   -0.4170    1.4200 C   0  0  0  0  0
   -2.8770   -0.3720    0.2900 C   0  0  0  0  0
   -4.0840   -0.5080    0.4000 O   0  0  0  0  0
   -2.2480   -0.1550   -1.0230 C   0  0  0  0  0
   -3.0130   -0.0950   -2.1940 C   0  0  0  0  0
   -4.3610   -0.2390   -2.1390 O   0  0  0  0  0
   -2.3830    0.1100   -3.4090 C   0  0  0  0  0
   -1.0020    0.2570   -3.4630 C   0  0  0  0  0
   -0.3940    0.4590   -4.6600 O   0  0  0  0  0
    0.1860   -0.3120    2.4470 C   0  0  0  0  0
   -0.2180    0.2930    3.6390 C   0  0  0  0  0
   -1.7520    1.1020    3.7280 Cl  0  0  0  0  0
    0.5990    0.2370    4.7500 C   0  0  0  0  0
    1.8210   -0.4060    4.6810 C   0  0  0  0  0
    2.2300   -1.0040    3.5010 C   0  0  0  0  0
    1.4210   -0.9610    2.3850 C   0  0  0  0  0
    1.4890   -1.4220   -0.7650 O   0  0  0  0  0
  1  2  1  0  0  0
  2  3  1  0  0  0
  2  7  1  0  0  0
  3  4  1  0  0  0
  4  5  1  0  0  0
  5  6  1  0  0  0
  5  8  1  0  0  0
  6  7  1  0  0  0
  6 28  1  0  0  0
  8  9  2  0  0  0
  8 19  1  0  0  0
  9 10  1  0  0  0
  9 15  1  0  0  0
 10 11  1  0  0  0
 11 12  2  0  0  0
 11 21  1  0  0  0
 12 13  1  0  0  0
 13 14  2  0  0  0
 13 15  1  0  0  0
 15 16  2  0  0  0
 16 17  1  0  0  0
 16 18  1  0  0  0
 18 19  2  0  0  0
 19 20  1  0  0  0
 21 22  2  0  0  0
 21 27  1  0  0  0
 22 23  1  0  0  0
 22 24  1  0  0  0
 24 25  2  0  0  0
 25 26  1  0  0  0
 26 27  2  0  0  0
M  END
