FMM
 OpenBabel07091011243D

 40 44  0  0  0  0  0  0  0  0999 V2000
    3.0270    1.8080  -10.8750 C   0  0  0  0  0
    3.2190    0.4340   -9.7060 S   0  0  0  0  0
    3.2560   -0.7870  -10.4310 O   0  0  0  0  0
    4.2670    0.7430   -8.7970 O   0  0  0  0  0
    1.6300    0.5590   -8.8390 C   0  0  0  0  0
    1.5470   -0.5290   -7.7680 C   0  0  0  0  0
    0.2610   -0.4290   -7.0660 N   0  0  0  0  0
    0.2460   -1.4960   -6.0570 C   0  0  0  0  0
   -1.0530   -1.4490   -5.2950 C   0  0  0  0  0
   -2.1830   -2.1030   -5.6300 C   0  0  0  0  0
   -3.1480   -1.7850   -4.6530 C   0  0  0  0  0
   -2.5500   -0.9390   -3.7720 C   0  0  0  0  0
   -1.2790   -0.7450   -4.1740 O   0  0  0  0  0
   -3.1840   -0.3390   -2.5800 C   0  0  0  0  0
   -4.5130    0.1100   -2.6480 C   0  0  0  0  0
   -5.1180    0.6650   -1.5650 C   0  0  0  0  0
   -4.4130    0.7960   -0.3590 C   0  0  0  0  0
   -4.9740    1.3390    0.7310 N   0  0  0  0  0
   -4.2920    1.4490    1.8460 C   0  0  0  0  0
   -3.0380    1.0440    1.9680 N   0  0  0  0  0
   -2.3870    0.4930    0.9520 C   0  0  0  0  0
   -1.0810    0.0740    1.0910 N   0  0  0  0  0
   -0.4620    0.1170    2.3460 C   0  0  0  0  0
   -1.1990   -0.1450    3.4930 C   0  0  0  0  0
   -0.5890   -0.1030    4.7310 C   0  0  0  0  0
    0.7600    0.2010    4.8290 C   0  0  0  0  0
    1.3610    0.2420    6.0490 O   0  0  0  0  0
    0.3550   -0.0670    7.0150 C   0  0  0  0  0
    0.9580   -0.0380    8.3960 C   0  0  0  0  0
    0.9660    1.1380    9.1220 C   0  0  0  0  0
    1.5190    1.1660   10.3880 C   0  0  0  0  0
    2.0650    0.0180   10.9300 C   0  0  0  0  0
    2.0590   -1.1600   10.2040 C   0  0  0  0  0
    2.5920   -2.2830   10.7330 F   0  0  0  0  0
    1.4990   -1.1880    8.9380 C   0  0  0  0  0
    1.4980    0.4630    3.6830 C   0  0  0  0  0
    3.1870    0.8440    3.8070 Cl  0  0  0  0  0
    0.8890    0.4170    2.4440 C   0  0  0  0  0
   -3.0720    0.3460   -0.2800 C   0  0  0  0  0
   -2.4640   -0.2270   -1.3990 C   0  0  0  0  0
  1  2  1  0  0  0
  2  3  2  0  0  0
  2  4  2  0  0  0
  2  5  1  0  0  0
  5  6  1  0  0  0
  6  7  1  0  0  0
  7  8  1  0  0  0
  8  9  1  0  0  0
  9 10  2  0  0  0
  9 13  1  0  0  0
 10 11  1  0  0  0
 11 12  2  0  0  0
 12 13  1  0  0  0
 12 14  1  0  0  0
 14 15  1  0  0  0
 14 40  2  0  0  0
 15 16  2  0  0  0
 16 17  1  0  0  0
 17 18  2  0  0  0
 17 39  1  0  0  0
 18 19  1  0  0  0
 19 20  2  0  0  0
 20 21  1  0  0  0
 21 22  1  0  0  0
 21 39  2  0  0  0
 22 23  1  0  0  0
 23 24  2  0  0  0
 23 38  1  0  0  0
 24 25  1  0  0  0
 25 26  2  0  0  0
 26 27  1  0  0  0
 26 36  1  0  0  0
 27 28  1  0  0  0
 28 29  1  0  0  0
 29 30  2  0  0  0
 29 35  1  0  0  0
 30 31  1  0  0  0
 31 32  2  0  0  0
 32 33  1  0  0  0
 33 34  1  0  0  0
 33 35  2  0  0  0
 36 37  1  0  0  0
 36 38  2  0  0  0
 39 40  1  0  0  0
M  END
