LY_317615
  SciTegic01111223113D

 40 45  0  0  0  0            999 V2000
   -0.7353   -3.7177   -0.0006 C   0  0
    0.2559   -2.6873   -0.0004 N   0  0
    1.5771   -2.8991   -0.0005 C   0  0
    2.1880   -1.6448   -0.0003 C   0  0
    1.1816   -0.6988   -0.0002 C   0  0
    1.2447    0.6839    0.0000 C   0  0
    0.0256    1.3607    0.0001 C   0  0
   -1.1883    0.6649    0.0000 C   0  0
   -1.2241   -0.7295   -0.0002 C   0  0
   -0.0041   -1.3847   -0.0002 C   0  0
    3.6286   -1.3809   -0.0003 C   0  0
    4.5795   -2.2898   -0.0005 C   0  0
    5.8565   -1.5871   -0.0004 C   0  0
    6.9678   -2.1250   -0.0006 O   0  0
    5.6244   -0.1981   -0.0003 N   0  0
    4.2226   -0.0625   -0.0002 C   0  0
    3.6099    1.0093   -0.0001 O   0  0
    4.3989   -3.7434   -0.0006 C   0  0
    3.1854   -4.4052   -0.0007 C   0  0
    3.4734   -5.7119   -0.0009 N   0  0
    4.7888   -5.8961   -0.0009 C   0  0
    5.5136   -7.0760   -0.0011 C   0  0
    6.9036   -6.9595   -0.0011 C   0  0
    7.5280   -5.7073   -0.0010 C   0  0
    6.7817   -4.5295   -0.0008 C   0  0
    5.4049   -4.6726   -0.0008 C   0  0
    2.5008   -6.7626   -0.0010 C   0  0
    1.6150   -6.6424    1.2460 C   0  0
    0.5507   -7.7545    1.2110 C   0  0
   -0.2818   -7.6161   -0.0011 N   0  0
    0.5492   -7.7534   -1.2143 C   0  0
    1.6154   -6.6425   -1.2483 C   0  0
   -1.3311   -8.6944   -0.0005 C   0  0
   -0.8628  -10.1695   -0.0010 C   0  0
    0.4814  -10.5296   -0.0024 C   0  0
    0.8284  -11.8731   -0.0029 C   0  0
   -0.1851  -12.8209   -0.0020 C   0  0
   -1.5094  -12.3994   -0.0006 C   0  0
   -1.8093  -11.1049   -0.0002 N   0  0
   10.0280   -5.7301    0.0000 Cl  0  0
  1  2  1  0
  2  3  1  0
  3  4  2  3
  4  5  1  0
  5  6  2  3
  6  7  1  0
  7  8  2  3
  8  9  1  0
  9 10  2  3
 10  5  1  0
 10  2  1  0
  4 11  1  0
 11 12  2  3
 12 13  1  0
 13 14  2  0
 13 15  1  0
 15 16  1  0
 16 11  1  0
 16 17  2  0
 12 18  1  0
 18 19  2  3
 19 20  1  0
 20 21  1  0
 21 22  2  3
 22 23  1  0
 23 24  2  3
 24 25  1  0
 25 26  2  3
 26 21  1  0
 26 18  1  0
 20 27  1  0
 27 28  1  0
 28 29  1  0
 29 30  1  0
 30 31  1  0
 31 32  1  0
 32 27  1  0
 30 33  1  0
 33 34  1  0
 34 35  2  3
 35 36  1  0
 36 37  2  3
 37 38  1  0
 38 39  2  3
 39 34  1  0
M  END
