Nilotinib
  SciTegic01111223113D

 39 43  0  0  0  0            999 V2000
    2.5107   -1.4380   -0.0001 C   0  0
    1.2133   -0.6892   -0.0001 C   0  0
    1.2136    0.7004    0.0000 C   0  0
    0.0104    1.3957    0.0000 C   0  0
   -1.1929    0.7005   -0.0001 C   0  0
   -1.1933   -0.6893   -0.0002 C   0  0
    0.0099   -1.3844   -0.0002 C   0  0
   -2.4583    1.4313   -0.0001 C   0  0
   -3.5180    0.7954   -0.0001 O   0  0
   -2.4392    2.8489    0.0001 N   0  0
   -3.6050    3.6593    0.0001 C   0  0
   -4.8783    3.1011    0.0000 C   0  0
   -5.9986    3.9235    0.0001 C   0  0
   -5.8469    5.3049    0.0002 C   0  0
   -4.5746    5.8639    0.0003 C   0  0
   -3.4542    5.0417    0.0003 C   0  0
   -4.4214    7.2584    0.0005 N   0  0
   -5.4251    8.1106    0.0006 C   0  0
   -4.8001    9.3467    0.0007 C   0  0
   -3.4843    9.1838    0.0007 N   0  0
   -3.2518    7.8734    0.0006 C   0  0
   -5.5043   10.6669    0.0008 C   0  0
   -7.3707    3.3202    0.0008 C   0  0
   -7.2804    1.9452    0.0868 F   0  0
   -8.0841    3.8061    1.0773 F   0  0
   -8.0185    3.6685   -1.1658 F   0  0
    2.4844    1.4363    0.0000 N   0  0
    2.4650    2.9101    0.0001 C   0  0
    1.3307    3.6062    0.0000 N   0  0
    1.3402    4.9330    0.0001 C   0  0
    2.5547    5.6033    0.0002 C   0  0
    3.7208    4.8523    0.0002 C   0  0
    3.6444    3.5280    0.0002 N   0  0
    5.0267    5.5168    0.0003 C   0  0
    5.1078    6.9029    0.0004 C   0  0
    6.2900    7.5113    0.0005 N   0  0
    7.4242    6.8198    0.0005 C   0  0
    7.4097    5.4293    0.0005 C   0  0
    6.1927    4.7637    0.0004 C   0  0
  1  2  1  0
  2  3  2  3
  3  4  1  0
  4  5  2  3
  5  6  1  0
  6  7  2  3
  7  2  1  0
  5  8  1  0
  8  9  2  0
  8 10  1  0
 10 11  1  0
 11 12  2  3
 12 13  1  0
 13 14  2  3
 14 15  1  0
 15 16  2  3
 16 11  1  0
 15 17  1  0
 17 18  1  0
 18 19  2  3
 19 20  1  0
 20 21  2  3
 21 17  1  0
 19 22  1  0
 13 23  1  0
 23 24  1  0
 23 25  1  0
 23 26  1  0
  3 27  1  0
 27 28  1  0
 28 29  2  3
 29 30  1  0
 30 31  2  3
 31 32  1  0
 32 33  2  3
 33 28  1  0
 32 34  1  0
 34 35  2  3
 35 36  1  0
 36 37  2  3
 37 38  1  0
 38 39  2  3
 39 34  1  0
M  END
