PD_173955
  SciTegic01111223113D

 29 32  0  0  0  0            999 V2000
    2.4163   -1.3330    0.0035 C   0  0
    1.2162   -0.6588    0.0012 N   0  0
    1.2130    0.6718    0.0006 C   0  0
    2.3789    1.3158    0.0007 N   0  0
    2.4064    2.6343    0.0002 C   0  0
    1.2734    3.3385   -0.0002 N   0  0
    0.0815    2.7493   -0.0002 C   0  0
    0.0316    1.3586    0.0000 C   0  0
   -1.2421    0.6208   -0.0002 C   0  0
   -1.2721   -0.7202   -0.0002 C   0  0
    0.0730   -1.3836    0.0002 C   0  0
    0.2362   -2.5899    0.0000 O   0  0
   -2.6817   -1.4841   -0.0003 C   0  0
   -3.8715   -0.7287    0.0000 C   0  0
   -5.1191   -1.3404    0.0000 C   0  0
   -5.2444   -2.7147   -0.0001 C   0  0
   -4.0942   -3.4758   -0.0004 C   0  0
   -2.8351   -2.8918   -0.0005 C   0  0
   -1.5826   -4.0562   -0.0010 Cl  0  0
   -3.9286    1.0022    0.0003 Cl  0  0
    3.6595    3.3506   -0.0005 N   0  0
    4.9533    2.6144   -0.0001 C   0  0
    5.1189    1.2195    0.0016 C   0  0
    6.4160    0.6822    0.0022 C   0  0
    7.5149    1.5288    0.0008 C   0  0
    7.3539    2.9020   -0.0017 C   0  0
    6.0761    3.4331   -0.0017 C   0  0
    6.8286   -1.0734    0.0092 S   0  0
    5.4675   -2.2319   -0.0165 C   0  0
  1  2  1  0
  2  3  1  0
  3  4  2  3
  4  5  1  0
  5  6  2  3
  6  7  1  0
  7  8  2  3
  8  3  1  0
  8  9  1  0
  9 10  2  3
 10 11  1  0
 11  2  1  0
 11 12  2  0
 10 13  1  0
 13 14  2  3
 14 15  1  0
 15 16  2  3
 16 17  1  0
 17 18  2  3
 18 13  1  0
 18 19  1  0
 14 20  1  0
  5 21  1  0
 21 22  1  0
 22 23  2  3
 23 24  1  0
 24 25  2  3
 25 26  1  0
 26 27  2  3
 27 22  1  0
 24 28  1  0
 28 29  1  0
M  END
