TG_101348
  SciTegic01111223113D

 37 40  0  0  0  0            999 V2000
    2.4699   -1.4372    0.0000 C   0  0
    1.1729   -0.6881   -0.0001 C   0  0
    1.1569    0.6985    0.0001 C   0  0
   -0.0099    1.3301    0.0001 N   0  0
   -1.1544    0.6533   -0.0001 C   0  0
   -1.1684   -0.6762   -0.0003 N   0  0
   -0.0361   -1.3672   -0.0003 C   0  0
   -0.0642   -2.8312   -0.0005 N   0  0
   -1.3692   -3.5120   -0.0007 C   0  0
   -2.5766   -2.8222   -0.0008 C   0  0
   -3.7778   -3.5210   -0.0010 C   0  0
   -3.7738   -4.9109   -0.0012 C   0  0
   -2.5682   -5.6022   -0.0012 C   0  0
   -1.3668   -4.9034   -0.0009 C   0  0
   -5.3089   -2.6425   -0.0016 S   0  0
   -6.1430   -3.1091   -1.1793 O   0  0
   -6.0482   -2.9582    1.2846 O   0  0
   -5.0092   -0.9538   -0.1147 N   0  0
   -6.0891    0.0032   -0.2540 C   0  0
   -5.5169    1.4302   -0.1798 C   0  0
   -7.1187   -0.1866    0.8753 C   0  0
   -6.7897   -0.1858   -1.6126 C   0  0
   -2.4214    1.3878   -0.0001 N   0  0
   -2.3839    2.8592    0.0000 C   0  0
   -1.1948    3.5805    0.0002 C   0  0
   -1.2232    4.9700    0.0004 C   0  0
   -2.4411    5.6397    0.0004 C   0  0
   -3.6305    4.9208    0.0002 C   0  0
   -3.6021    3.5315    0.0000 C   0  0
   -2.4701    7.0338    0.0005 O   0  0
   -1.1407    7.5658    0.0007 C   0  0
   -1.2103    9.1064    0.0007 C   0  0
    0.1487    9.6765    0.0009 N   0  0
    0.9228    9.2076    1.1821 C   0  0
    1.8440    8.0754    0.6527 C   0  0
    1.3144    7.8117   -0.7497 C   0  0
    0.9055    9.2194   -1.1677 C   0  0
  1  2  1  0
  2  3  2  3
  3  4  1  0
  4  5  2  3
  5  6  1  0
  6  7  2  3
  7  2  1  0
  7  8  1  0
  8  9  1  0
  9 10  2  3
 10 11  1  0
 11 12  2  3
 12 13  1  0
 13 14  2  3
 14  9  1  0
 11 15  1  0
 15 16  2  0
 15 17  2  0
 15 18  1  0
 18 19  1  0
 19 20  1  0
 19 21  1  0
 19 22  1  0
  5 23  1  0
 23 24  1  0
 24 25  2  3
 25 26  1  0
 26 27  2  3
 27 28  1  0
 28 29  2  3
 29 24  1  0
 27 30  1  0
 30 31  1  0
 31 32  1  0
 32 33  1  0
 33 34  1  0
 34 35  1  0
 35 36  1  0
 36 37  1  0
 37 33  1  0
M  END
