B96
 OpenBabel07091011243D

 39 43  0  0  0  0  0  0  0  0999 V2000
    0.2350    0.2940    1.4480 C   0  0  0  0  0
   -0.8940    0.5620    1.0850 O   0  0  0  0  0
    1.2440    0.2770    0.5540 N   0  0  0  0  0
    0.9730    0.4410   -0.8080 C   0  0  0  0  0
    1.9670    0.9430   -1.6740 C   0  0  0  0  0
    1.6750    1.0950   -3.0520 C   0  0  0  0  0
    0.3950    0.7530   -3.5310 C   0  0  0  0  0
    3.2450    1.2790   -1.1990 C   0  0  0  0  0
    4.1820    1.7540   -2.0640 C   0  0  0  0  0
    3.8940    1.9090   -3.4190 C   0  0  0  0  0
    2.6670    1.5890   -3.9150 C   0  0  0  0  0
   -0.5480    0.2750   -2.6670 C   0  0  0  0  0
   -0.2660    0.1180   -1.3130 C   0  0  0  0  0
    0.4780    0.0140    2.7440 N   0  0  0  0  0
   -0.5650    0.0320    3.6690 C   0  0  0  0  0
   -1.8700    0.3140    3.4050 C   0  0  0  0  0
   -2.5800    0.2210    4.6050 C   0  0  0  0  0
   -1.7450   -0.1070    5.5570 N   0  0  0  0  0
   -0.4670   -0.2370    4.9990 N   0  0  0  0  0
    0.7040   -0.5790    5.6880 C   0  0  0  0  0
   -4.4430    0.2600    6.2420 C   0  0  0  0  0
   -4.3960    1.8910    4.3500 C   0  0  0  0  0
   -4.8380   -0.5260    3.9030 C   0  0  0  0  0
   -4.0590    0.4610    4.7740 C   0  0  0  0  0
    0.9440   -0.0590    6.9530 C   0  0  0  0  0
    2.0990   -0.3990    7.6300 C   0  0  0  0  0
    3.0160   -1.2550    7.0490 C   0  0  0  0  0
    2.7830   -1.7700    5.7870 C   0  0  0  0  0
    1.6270   -1.4390    5.1070 C   0  0  0  0  0
    4.2750   -1.6230    7.7900 C   0  0  0  0  0
    0.1000    0.9000   -4.8490 O   0  0  0  0  0
   -1.2540    0.4760   -5.0190 C   0  0  0  0  0
   -1.6520    0.6160   -6.4890 C   0  0  0  0  0
   -0.7700   -0.2180   -7.3170 N   0  0  0  0  0
   -1.2040   -0.0380   -8.7090 C   0  0  0  0  0
   -0.4420   -1.0100   -9.6110 C   0  0  0  0  0
   -0.7580   -2.3540   -9.2460 O   0  0  0  0  0
   -0.2990   -2.5470   -7.9090 C   0  0  0  0  0
   -1.0570   -1.6140   -6.9630 C   0  0  0  0  0
  1  2  2  0  0  0
  1  3  1  0  0  0
  1 14  1  0  0  0
  3  4  1  0  0  0
  4  5  2  0  0  0
  4 13  1  0  0  0
  5  6  1  0  0  0
  5  8  1  0  0  0
  6  7  2  0  0  0
  6 11  1  0  0  0
  7 12  1  0  0  0
  7 31  1  0  0  0
  8  9  2  0  0  0
  9 10  1  0  0  0
 10 11  2  0  0  0
 12 13  2  0  0  0
 14 15  1  0  0  0
 15 16  2  0  0  0
 15 19  1  0  0  0
 16 17  1  0  0  0
 17 18  2  0  0  0
 17 24  1  0  0  0
 18 19  1  0  0  0
 19 20  1  0  0  0
 20 25  2  0  0  0
 20 29  1  0  0  0
 21 24  1  0  0  0
 22 24  1  0  0  0
 23 24  1  0  0  0
 25 26  1  0  0  0
 26 27  2  0  0  0
 27 28  1  0  0  0
 27 30  1  0  0  0
 28 29  2  0  0  0
 31 32  1  0  0  0
 32 33  1  0  0  0
 33 34  1  0  0  0
 34 35  1  0  0  0
 34 39  1  0  0  0
 35 36  1  0  0  0
 36 37  1  0  0  0
 37 38  1  0  0  0
 38 39  1  0  0  0
M  END
