SB2
 OpenBabel07091011253D

 27 30  0  0  0  0  0  0  0  0999 V2000
    0.9580   -0.0750    7.0750 O   0  0  0  0  0
   -1.4430   -1.1910    6.9630 C   0  0  0  0  0
   -0.3740    0.2500    6.7050 S   0  0  0  0  0
   -1.0200    0.8630    2.7890 C   0  0  0  0  0
   -1.1330    0.8920    4.1630 C   0  0  0  0  0
   -0.2230    0.2080    4.9500 C   0  0  0  0  0
    0.8080   -0.5040    4.3640 C   0  0  0  0  0
    0.9280   -0.5450    2.9900 C   0  0  0  0  0
    0.0140    0.1420    2.1910 C   0  0  0  0  0
    3.6890    0.1840   -4.5510 N   0  0  0  0  0
    3.9360   -0.6190   -3.5340 C   0  0  0  0  0
    3.0830   -0.6780   -2.4530 C   0  0  0  0  0
    1.9390    0.1310   -2.4470 C   0  0  0  0  0
    1.7130    0.9650   -3.5510 C   0  0  0  0  0
    2.6240    0.9630   -4.5860 C   0  0  0  0  0
    1.3130    0.1640    0.0240 N   0  0  0  0  0
    0.1400    0.1060    0.7190 C   0  0  0  0  0
   -0.8580    0.0080   -0.1280 N   0  0  0  0  0
   -0.3840    0.0080   -1.3830 C   0  0  0  0  0
    0.9960    0.1030   -1.3130 C   0  0  0  0  0
   -0.7700   -0.8950   -3.6740 C   0  0  0  0  0
   -1.5250   -0.9760   -4.8260 C   0  0  0  0  0
   -2.7010   -0.2510   -4.9380 C   0  0  0  0  0
   -3.1230    0.5580   -3.8960 C   0  0  0  0  0
   -2.3780    0.6410   -2.7380 C   0  0  0  0  0
   -1.1910   -0.0820   -2.6220 C   0  0  0  0  0
   -3.4370   -0.3340   -6.0680 F   0  0  0  0  0
  1  3  2  0  0  0
  2  3  1  0  0  0
  3  6  1  0  0  0
  4  5  2  0  0  0
  4  9  1  0  0  0
  5  6  1  0  0  0
  6  7  2  0  0  0
  7  8  1  0  0  0
  8  9  2  0  0  0
  9 17  1  0  0  0
 10 11  2  0  0  0
 10 15  1  0  0  0
 11 12  1  0  0  0
 12 13  2  0  0  0
 13 14  1  0  0  0
 13 20  1  0  0  0
 14 15  2  0  0  0
 16 17  1  0  0  0
 16 20  1  0  0  0
 17 18  2  0  0  0
 18 19  1  0  0  0
 19 20  2  0  0  0
 19 26  1  0  0  0
 21 22  2  0  0  0
 21 26  1  0  0  0
 22 23  1  0  0  0
 23 24  2  0  0  0
 23 27  1  0  0  0
 24 25  1  0  0  0
 25 26  2  0  0  0
M  END
